1
 SUMMARY VOLUMETRIC BUDGET FOR GSFLOW 
 DATE: 10 07 1980              CUMULATIVE TIME STEP:       7
 MODFLOW STRESS PERIOD      2     CURRENT TIME STEP:       7     ITERATIONS:       6

 -----------------------------------------------------------------------------------

   CUMULATIVE VOLUMES               L**3   RATES FOR THIS TIME STEP           L**3/T
   ------------------                      ------------------------

                                     IN                                         IN
                                     --                                         --
        PRECIPITATION =                            PRECIPITATION =                  
           STREAMFLOW =                               STREAMFLOW =                  
     GW BOUNDARY FLOW =                         GW BOUNDARY FLOW =                  
                WELLS =                                    WELLS =                  


                                    OUT                                        OUT
                                    ---                                        ---
   EVAPOTRANSPIRATION =          66590.84     EVAPOTRANSPIRATION =           9274.90
           STREAMFLOW =          42965.14             STREAMFLOW =           6069.77
     GW BOUNDARY FLOW =           4541.44       GW BOUNDARY FLOW =            648.70
                WELLS =                                    WELLS =                  

   INFLOWS - OUTFLOWS =        -114097.41     INFLOWS - OUTFLOWS =         -15993.37
             --------                                   --------

 TOTAL STORAGE CHANGE =        -113576.30         STORAGE CHANGE =         -15914.26
       --------------                             --------------
         LAND SURFACE =                             LAND SURFACE =                  
            SOIL ZONE =          43916.43              SOIL ZONE =           6420.63
     UNSATURATED ZONE =        -144847.59       UNSATURATED ZONE =         -20370.64
       SATURATED ZONE =         -12645.14         SATURATED ZONE =          -1964.25

 OVERALL BUDGET ERROR =           -521.11           BUDGET ERROR =            -79.10


  PERCENT DISCREPANCY =             -0.46    PERCENT DISCREPANCY =             -0.50



1
 SUMMARY VOLUMETRIC BUDGET FOR GSFLOW 
 DATE: 10 14 1980              CUMULATIVE TIME STEP:      14
 MODFLOW STRESS PERIOD      2     CURRENT TIME STEP:      14     ITERATIONS:       7

 -----------------------------------------------------------------------------------

   CUMULATIVE VOLUMES               L**3   RATES FOR THIS TIME STEP           L**3/T
   ------------------                      ------------------------

                                     IN                                         IN
                                     --                                         --
        PRECIPITATION =         650779.81          PRECIPITATION =         164754.39
           STREAMFLOW =                               STREAMFLOW =                  
     GW BOUNDARY FLOW =                         GW BOUNDARY FLOW =                  
                WELLS =                                    WELLS =                  


                                    OUT                                        OUT
                                    ---                                        ---
   EVAPOTRANSPIRATION =         162582.28     EVAPOTRANSPIRATION =          11440.08
           STREAMFLOW =          93075.18             STREAMFLOW =           8014.70
     GW BOUNDARY FLOW =           9082.81       GW BOUNDARY FLOW =            648.93
                WELLS =                                    WELLS =                  

   INFLOWS - OUTFLOWS =         386039.53     INFLOWS - OUTFLOWS =         144650.69
             --------                                   --------

 TOTAL STORAGE CHANGE =         387128.09         STORAGE CHANGE =         144730.22
       --------------                             --------------
         LAND SURFACE =         183651.30           LAND SURFACE =         130477.13
            SOIL ZONE =         515368.03              SOIL ZONE =          36202.30
     UNSATURATED ZONE =        -284592.13       UNSATURATED ZONE =         -19643.28
       SATURATED ZONE =         -27299.19         SATURATED ZONE =          -2305.93

 OVERALL BUDGET ERROR =          -1088.56           BUDGET ERROR =            -79.53


  PERCENT DISCREPANCY =             -0.17    PERCENT DISCREPANCY =             -0.05



1
 SUMMARY VOLUMETRIC BUDGET FOR GSFLOW 
 DATE: 10 21 1980              CUMULATIVE TIME STEP:      21
 MODFLOW STRESS PERIOD      2     CURRENT TIME STEP:      21     ITERATIONS:       6

 -----------------------------------------------------------------------------------

   CUMULATIVE VOLUMES               L**3   RATES FOR THIS TIME STEP           L**3/T
   ------------------                      ------------------------

                                     IN                                         IN
                                     --                                         --
        PRECIPITATION =         733157.00          PRECIPITATION =                  
           STREAMFLOW =                               STREAMFLOW =                  
     GW BOUNDARY FLOW =                         GW BOUNDARY FLOW =                  
                WELLS =                                    WELLS =                  


                                    OUT                                        OUT
                                    ---                                        ---
   EVAPOTRANSPIRATION =         432659.72     EVAPOTRANSPIRATION =          44096.84
           STREAMFLOW =         144355.20             STREAMFLOW =           6875.20
     GW BOUNDARY FLOW =          13624.55       GW BOUNDARY FLOW =            648.74
                WELLS =                                    WELLS =                  

   INFLOWS - OUTFLOWS =         142517.56     INFLOWS - OUTFLOWS =         -51620.77
             --------                                   --------

 TOTAL STORAGE CHANGE =         144202.17         STORAGE CHANGE =         -51529.52
       --------------                             --------------
         LAND SURFACE =             -0.02           LAND SURFACE =                  
            SOIL ZONE =         609110.69              SOIL ZONE =         -29702.00
     UNSATURATED ZONE =        -418867.28       UNSATURATED ZONE =         -18839.07
       SATURATED ZONE =         -46041.32         SATURATED ZONE =          -2988.45

 OVERALL BUDGET ERROR =          -1684.61           BUDGET ERROR =            -91.25


  PERCENT DISCREPANCY =             -0.23    PERCENT DISCREPANCY =             -0.18



1
 SUMMARY VOLUMETRIC BUDGET FOR GSFLOW 
 DATE: 10 28 1980              CUMULATIVE TIME STEP:      28
 MODFLOW STRESS PERIOD      2     CURRENT TIME STEP:      28     ITERATIONS:       7

 -----------------------------------------------------------------------------------

   CUMULATIVE VOLUMES               L**3   RATES FOR THIS TIME STEP           L**3/T
   ------------------                      ------------------------

                                     IN                                         IN
                                     --                                         --
        PRECIPITATION =        1070903.50          PRECIPITATION =                  
           STREAMFLOW =                               STREAMFLOW =                  
     GW BOUNDARY FLOW =                         GW BOUNDARY FLOW =                  
                WELLS =                                    WELLS =                  


                                    OUT                                        OUT
                                    ---                                        ---
   EVAPOTRANSPIRATION =         623477.50     EVAPOTRANSPIRATION =          24687.24
           STREAMFLOW =         196447.11             STREAMFLOW =           7728.09
     GW BOUNDARY FLOW =          18165.50       GW BOUNDARY FLOW =            648.75
                WELLS =                                    WELLS =                  

   INFLOWS - OUTFLOWS =         232813.38     INFLOWS - OUTFLOWS =         -33064.08
             --------                                   --------

 TOTAL STORAGE CHANGE =         235130.02         STORAGE CHANGE =         -32980.77
       --------------                             --------------
         LAND SURFACE =          20524.21           LAND SURFACE =         -29854.70
            SOIL ZONE =         830903.69              SOIL ZONE =          18367.13
     UNSATURATED ZONE =        -547643.06       UNSATURATED ZONE =         -18027.54
       SATURATED ZONE =         -68654.91         SATURATED ZONE =          -3465.65

 OVERALL BUDGET ERROR =          -2316.64           BUDGET ERROR =            -83.32


  PERCENT DISCREPANCY =             -0.22    PERCENT DISCREPANCY =             -0.25



1
 SUMMARY VOLUMETRIC BUDGET FOR GSFLOW 
 DATE: 11 04 1980              CUMULATIVE TIME STEP:      35
 MODFLOW STRESS PERIOD      2     CURRENT TIME STEP:      35     ITERATIONS:       7

 -----------------------------------------------------------------------------------

   CUMULATIVE VOLUMES               L**3   RATES FOR THIS TIME STEP           L**3/T
   ------------------                      ------------------------

                                     IN                                         IN
                                     --                                         --
        PRECIPITATION =        1070903.50          PRECIPITATION =                  
           STREAMFLOW =                               STREAMFLOW =                  
     GW BOUNDARY FLOW =                         GW BOUNDARY FLOW =                  
                WELLS =                                    WELLS =                  


                                    OUT                                        OUT
                                    ---                                        ---
   EVAPOTRANSPIRATION =         961832.31     EVAPOTRANSPIRATION =          43339.85
           STREAMFLOW =         247156.58             STREAMFLOW =           6820.46
     GW BOUNDARY FLOW =          22706.22       GW BOUNDARY FLOW =            648.61
                WELLS =                                    WELLS =                  

   INFLOWS - OUTFLOWS =        -160791.63     INFLOWS - OUTFLOWS =         -50808.91
             --------                                   --------

 TOTAL STORAGE CHANGE =        -157782.41         STORAGE CHANGE =         -50720.28
       --------------                             --------------
         LAND SURFACE =             -0.02           LAND SURFACE =                  
            SOIL ZONE =         609217.50              SOIL ZONE =         -29198.01
     UNSATURATED ZONE =        -671264.69       UNSATURATED ZONE =         -17375.17
       SATURATED ZONE =         -95735.33         SATURATED ZONE =          -4147.10

 OVERALL BUDGET ERROR =          -3009.22           BUDGET ERROR =            -88.63


  PERCENT DISCREPANCY =             -0.24    PERCENT DISCREPANCY =             -0.17



1
 SUMMARY VOLUMETRIC BUDGET FOR GSFLOW 
 DATE: 11 11 1980              CUMULATIVE TIME STEP:      42
 MODFLOW STRESS PERIOD      2     CURRENT TIME STEP:      42     ITERATIONS:       7

 -----------------------------------------------------------------------------------

   CUMULATIVE VOLUMES               L**3   RATES FOR THIS TIME STEP           L**3/T
   ------------------                      ------------------------

                                     IN                                         IN
                                     --                                         --
        PRECIPITATION =        1573762.63          PRECIPITATION =         255182.20
           STREAMFLOW =                               STREAMFLOW =                  
     GW BOUNDARY FLOW =                         GW BOUNDARY FLOW =                  
                WELLS =                                    WELLS =                  


                                    OUT                                        OUT
                                    ---                                        ---
   EVAPOTRANSPIRATION =        1193912.63     EVAPOTRANSPIRATION =          17022.83
           STREAMFLOW =         300122.03             STREAMFLOW =           9323.78
     GW BOUNDARY FLOW =          27246.60       GW BOUNDARY FLOW =            648.75
                WELLS =                                    WELLS =                  

   INFLOWS - OUTFLOWS =          52481.38     INFLOWS - OUTFLOWS =         228186.84
             --------                                   --------

 TOTAL STORAGE CHANGE =          56203.54         STORAGE CHANGE =         228269.66
       --------------                             --------------
         LAND SURFACE =          76836.68           LAND SURFACE =          76836.70
            SOIL ZONE =         895122.31              SOIL ZONE =         172301.16
     UNSATURATED ZONE =        -789945.69       UNSATURATED ZONE =         -16571.30
       SATURATED ZONE =        -125809.91         SATURATED ZONE =          -4296.89

 OVERALL BUDGET ERROR =          -3722.16           BUDGET ERROR =            -82.81


  PERCENT DISCREPANCY =             -0.24    PERCENT DISCREPANCY =             -0.03



1
 SUMMARY VOLUMETRIC BUDGET FOR GSFLOW 
 DATE: 11 18 1980              CUMULATIVE TIME STEP:      49
 MODFLOW STRESS PERIOD      2     CURRENT TIME STEP:      49     ITERATIONS:       6

 -----------------------------------------------------------------------------------

   CUMULATIVE VOLUMES               L**3   RATES FOR THIS TIME STEP           L**3/T
   ------------------                      ------------------------

                                     IN                                         IN
                                     --                                         --
        PRECIPITATION =        1573762.63          PRECIPITATION =                  
           STREAMFLOW =                               STREAMFLOW =                  
     GW BOUNDARY FLOW =                         GW BOUNDARY FLOW =                  
                WELLS =                                    WELLS =                  


                                    OUT                                        OUT
                                    ---                                        ---
   EVAPOTRANSPIRATION =        1290939.38     EVAPOTRANSPIRATION =          23216.39
           STREAMFLOW =         360386.72             STREAMFLOW =           8829.38
     GW BOUNDARY FLOW =          31788.06       GW BOUNDARY FLOW =            648.79
                WELLS =                                    WELLS =                  

   INFLOWS - OUTFLOWS =        -109351.50     INFLOWS - OUTFLOWS =         -32694.56
             --------                                   --------

 TOTAL STORAGE CHANGE =        -104857.15         STORAGE CHANGE =         -32574.79
       --------------                             --------------
         LAND SURFACE =           5214.83           LAND SURFACE =          -7686.44
            SOIL ZONE =         952334.25              SOIL ZONE =          -4065.82
     UNSATURATED ZONE =        -903951.13       UNSATURATED ZONE =         -16032.11
       SATURATED ZONE =        -158455.19         SATURATED ZONE =          -4790.43

 OVERALL BUDGET ERROR =          -4494.35           BUDGET ERROR =           -119.76


  PERCENT DISCREPANCY =             -0.27    PERCENT DISCREPANCY =             -0.37



1
 SUMMARY VOLUMETRIC BUDGET FOR GSFLOW 
 DATE: 11 25 1980              CUMULATIVE TIME STEP:      56
 MODFLOW STRESS PERIOD      2     CURRENT TIME STEP:      56     ITERATIONS:       7

 -----------------------------------------------------------------------------------

   CUMULATIVE VOLUMES               L**3   RATES FOR THIS TIME STEP           L**3/T
   ------------------                      ------------------------

                                     IN                                         IN
                                     --                                         --
        PRECIPITATION =        1648816.25          PRECIPITATION =                  
           STREAMFLOW =                               STREAMFLOW =                  
     GW BOUNDARY FLOW =                         GW BOUNDARY FLOW =                  
                WELLS =                                    WELLS =                  


                                    OUT                                        OUT
                                    ---                                        ---
   EVAPOTRANSPIRATION =        1380206.25     EVAPOTRANSPIRATION =           9277.87
           STREAMFLOW =         423018.06             STREAMFLOW =           9057.45
     GW BOUNDARY FLOW =          36329.72       GW BOUNDARY FLOW =            648.82
                WELLS =                                    WELLS =                  

   INFLOWS - OUTFLOWS =        -190737.75     INFLOWS - OUTFLOWS =         -18984.14
             --------                                   --------

 TOTAL STORAGE CHANGE =        -185472.95         STORAGE CHANGE =         -18884.33
       --------------                             --------------
         LAND SURFACE =          53014.06           LAND SURFACE =          -9258.01
            SOIL ZONE =         969832.56              SOIL ZONE =          11199.47
     UNSATURATED ZONE =       -1013702.13       UNSATURATED ZONE =         -15415.48
       SATURATED ZONE =        -194617.50         SATURATED ZONE =          -5410.30

 OVERALL BUDGET ERROR =          -5264.80           BUDGET ERROR =            -99.81


  PERCENT DISCREPANCY =             -0.29    PERCENT DISCREPANCY =             -0.53



1
 SUMMARY VOLUMETRIC BUDGET FOR GSFLOW 
 DATE: 12 02 1980              CUMULATIVE TIME STEP:      63
 MODFLOW STRESS PERIOD      2     CURRENT TIME STEP:      63     ITERATIONS:       7

 -----------------------------------------------------------------------------------

   CUMULATIVE VOLUMES               L**3   RATES FOR THIS TIME STEP           L**3/T
   ------------------                      ------------------------

                                     IN                                         IN
                                     --                                         --
        PRECIPITATION =        2076621.63          PRECIPITATION =                  
           STREAMFLOW =                               STREAMFLOW =                  
     GW BOUNDARY FLOW =                         GW BOUNDARY FLOW =                  
                WELLS =                                    WELLS =                  


                                    OUT                                        OUT
                                    ---                                        ---
   EVAPOTRANSPIRATION =        1590168.50     EVAPOTRANSPIRATION =          35187.37
           STREAMFLOW =         494312.78             STREAMFLOW =          12091.24
     GW BOUNDARY FLOW =          40872.15       GW BOUNDARY FLOW =            649.10
                WELLS =                                    WELLS =                  

   INFLOWS - OUTFLOWS =         -48731.88     INFLOWS - OUTFLOWS =         -47927.71
             --------                                   --------

 TOTAL STORAGE CHANGE =         -42714.93         STORAGE CHANGE =         -47837.82
       --------------                             --------------
         LAND SURFACE =         139391.38           LAND SURFACE =         -82011.34
            SOIL ZONE =        1167289.75              SOIL ZONE =          52848.80
     UNSATURATED ZONE =       -1116969.50       UNSATURATED ZONE =         -13642.90
       SATURATED ZONE =        -232426.77         SATURATED ZONE =          -5032.37

 OVERALL BUDGET ERROR =          -6016.94           BUDGET ERROR =            -89.90


  PERCENT DISCREPANCY =             -0.28    PERCENT DISCREPANCY =             -0.19



1
 SUMMARY VOLUMETRIC BUDGET FOR GSFLOW 
 DATE: 12 09 1980              CUMULATIVE TIME STEP:      70
 MODFLOW STRESS PERIOD      2     CURRENT TIME STEP:      70     ITERATIONS:       7

 -----------------------------------------------------------------------------------

   CUMULATIVE VOLUMES               L**3   RATES FOR THIS TIME STEP           L**3/T
   ------------------                      ------------------------

                                     IN                                         IN
                                     --                                         --
        PRECIPITATION =        4284363.50          PRECIPITATION =                  
           STREAMFLOW =                               STREAMFLOW =                  
     GW BOUNDARY FLOW =                         GW BOUNDARY FLOW =                  
                WELLS =                                    WELLS =                  


                                    OUT                                        OUT
                                    ---                                        ---
   EVAPOTRANSPIRATION =        1616730.50     EVAPOTRANSPIRATION =           4181.54
           STREAMFLOW =         578402.19             STREAMFLOW =          12418.96
     GW BOUNDARY FLOW =          45416.84       GW BOUNDARY FLOW =            649.35
                WELLS =                                    WELLS =                  

   INFLOWS - OUTFLOWS =        2043814.00     INFLOWS - OUTFLOWS =         -17249.85
             --------                                   --------

 TOTAL STORAGE CHANGE =        2050471.88         STORAGE CHANGE =         -17157.08
       --------------                             --------------
         LAND SURFACE =        2318906.75           LAND SURFACE =          -4181.49
            SOIL ZONE =        1219612.75              SOIL ZONE =           7151.90
     UNSATURATED ZONE =       -1216242.38       UNSATURATED ZONE =         -14242.96
       SATURATED ZONE =        -271805.50         SATURATED ZONE =          -5884.52

 OVERALL BUDGET ERROR =          -6657.88           BUDGET ERROR =            -92.77


  PERCENT DISCREPANCY =             -0.16    PERCENT DISCREPANCY =             -0.54



1
 SUMMARY VOLUMETRIC BUDGET FOR GSFLOW 
 DATE: 12 16 1980              CUMULATIVE TIME STEP:      77
 MODFLOW STRESS PERIOD      2     CURRENT TIME STEP:      77     ITERATIONS:       7

 -----------------------------------------------------------------------------------

   CUMULATIVE VOLUMES               L**3   RATES FOR THIS TIME STEP           L**3/T
   ------------------                      ------------------------

                                     IN                                         IN
                                     --                                         --
        PRECIPITATION =        4284363.50          PRECIPITATION =                  
           STREAMFLOW =                               STREAMFLOW =                  
     GW BOUNDARY FLOW =                         GW BOUNDARY FLOW =                  
                WELLS =                                    WELLS =                  


                                    OUT                                        OUT
                                    ---                                        ---
   EVAPOTRANSPIRATION =        1767790.63     EVAPOTRANSPIRATION =          35004.29
           STREAMFLOW =         678228.25             STREAMFLOW =          18894.26
     GW BOUNDARY FLOW =          49963.25       GW BOUNDARY FLOW =            649.78
                WELLS =                                    WELLS =                  

   INFLOWS - OUTFLOWS =        1788381.25     INFLOWS - OUTFLOWS =         -54548.33
             --------                                   --------

 TOTAL STORAGE CHANGE =        1795657.50         STORAGE CHANGE =         -54455.04
       --------------                             --------------
         LAND SURFACE =        1972628.00           LAND SURFACE =        -141505.97
            SOIL ZONE =        1442203.00              SOIL ZONE =         101116.31
     UNSATURATED ZONE =       -1307091.13       UNSATURATED ZONE =          -9529.58
       SATURATED ZONE =        -312082.88         SATURATED ZONE =          -4535.80

 OVERALL BUDGET ERROR =          -7276.25           BUDGET ERROR =            -93.29


  PERCENT DISCREPANCY =             -0.17    PERCENT DISCREPANCY =             -0.17



1
 SUMMARY VOLUMETRIC BUDGET FOR GSFLOW 
 DATE: 12 23 1980              CUMULATIVE TIME STEP:      84
 MODFLOW STRESS PERIOD      2     CURRENT TIME STEP:      84     ITERATIONS:      10

 -----------------------------------------------------------------------------------

   CUMULATIVE VOLUMES               L**3   RATES FOR THIS TIME STEP           L**3/T
   ------------------                      ------------------------

                                     IN                                         IN
                                     --                                         --
        PRECIPITATION =        4516757.50          PRECIPITATION =                  
           STREAMFLOW =                               STREAMFLOW =                  
     GW BOUNDARY FLOW =                         GW BOUNDARY FLOW =                  
                WELLS =                                    WELLS =                  


                                    OUT                                        OUT
                                    ---                                        ---
   EVAPOTRANSPIRATION =        1970891.00     EVAPOTRANSPIRATION =          34824.69
           STREAMFLOW =         881219.06             STREAMFLOW =          33069.20
     GW BOUNDARY FLOW =          54521.00       GW BOUNDARY FLOW =            651.80
                WELLS =                                    WELLS =                  

   INFLOWS - OUTFLOWS =        1610126.50     INFLOWS - OUTFLOWS =         -68545.70
             --------                                   --------

 TOTAL STORAGE CHANGE =        1617866.38         STORAGE CHANGE =         -68494.16
       --------------                             --------------
         LAND SURFACE =        1306360.88           LAND SURFACE =         -55143.64
            SOIL ZONE =        2000195.00              SOIL ZONE =          -3577.36
     UNSATURATED ZONE =       -1350364.38       UNSATURATED ZONE =          -5928.23
       SATURATED ZONE =        -338325.66         SATURATED ZONE =          -3844.92

 OVERALL BUDGET ERROR =          -7739.88           BUDGET ERROR =            -51.54


  PERCENT DISCREPANCY =             -0.17    PERCENT DISCREPANCY =             -0.08



1
 SUMMARY VOLUMETRIC BUDGET FOR GSFLOW 
 DATE: 12 30 1980              CUMULATIVE TIME STEP:      91
 MODFLOW STRESS PERIOD      2     CURRENT TIME STEP:      91     ITERATIONS:      11

 -----------------------------------------------------------------------------------

   CUMULATIVE VOLUMES               L**3   RATES FOR THIS TIME STEP           L**3/T
   ------------------                      ------------------------

                                     IN                                         IN
                                     --                                         --
        PRECIPITATION =        4516757.50          PRECIPITATION =                  
           STREAMFLOW =                               STREAMFLOW =                  
     GW BOUNDARY FLOW =                         GW BOUNDARY FLOW =                  
                WELLS =                                    WELLS =                  


                                    OUT                                        OUT
                                    ---                                        ---
   EVAPOTRANSPIRATION =        2295307.25     EVAPOTRANSPIRATION =          42905.50
           STREAMFLOW =        1118977.75             STREAMFLOW =          29376.31
     GW BOUNDARY FLOW =          59087.17       GW BOUNDARY FLOW =            652.54
                WELLS =                                    WELLS =                  

   INFLOWS - OUTFLOWS =        1043385.25     INFLOWS - OUTFLOWS =         -72934.36
             --------                                   --------

 TOTAL STORAGE CHANGE =        1051474.38         STORAGE CHANGE =         -72889.55
       --------------                             --------------
         LAND SURFACE =         517601.41           LAND SURFACE =         -41051.34
            SOIL ZONE =        2257235.75              SOIL ZONE =         -24309.45
     UNSATURATED ZONE =       -1361627.75       UNSATURATED ZONE =          -3710.36
       SATURATED ZONE =        -361735.72         SATURATED ZONE =          -3818.40

 OVERALL BUDGET ERROR =          -8089.13           BUDGET ERROR =            -44.80


  PERCENT DISCREPANCY =             -0.18    PERCENT DISCREPANCY =             -0.06



1
 SUMMARY VOLUMETRIC BUDGET FOR GSFLOW 
 DATE: 01 06 1981              CUMULATIVE TIME STEP:      98
 MODFLOW STRESS PERIOD      2     CURRENT TIME STEP:      98     ITERATIONS:       8

 -----------------------------------------------------------------------------------

   CUMULATIVE VOLUMES               L**3   RATES FOR THIS TIME STEP           L**3/T
   ------------------                      ------------------------

                                     IN                                         IN
                                     --                                         --
        PRECIPITATION =        5004445.50          PRECIPITATION =                  
           STREAMFLOW =                               STREAMFLOW =                  
     GW BOUNDARY FLOW =                         GW BOUNDARY FLOW =                  
                WELLS =                                    WELLS =                  


                                    OUT                                        OUT
                                    ---                                        ---
   EVAPOTRANSPIRATION =        2508421.75     EVAPOTRANSPIRATION =          21275.63
           STREAMFLOW =        1275014.50             STREAMFLOW =          20796.09
     GW BOUNDARY FLOW =          63649.28       GW BOUNDARY FLOW =            651.18
                WELLS =                                    WELLS =                  

   INFLOWS - OUTFLOWS =        1157360.00     INFLOWS - OUTFLOWS =         -42722.91
             --------                                   --------

 TOTAL STORAGE CHANGE =        1165810.88         STORAGE CHANGE =         -42665.49
       --------------                             --------------
         LAND SURFACE =         770051.19           LAND SURFACE =         -29101.57
            SOIL ZONE =        2221812.25              SOIL ZONE =           3244.52
     UNSATURATED ZONE =       -1427826.88       UNSATURATED ZONE =         -11144.31
       SATURATED ZONE =        -398226.44         SATURATED ZONE =          -5664.13

 OVERALL BUDGET ERROR =          -8450.88           BUDGET ERROR =            -57.41


  PERCENT DISCREPANCY =             -0.17    PERCENT DISCREPANCY =             -0.13



1
 SUMMARY VOLUMETRIC BUDGET FOR GSFLOW 
 DATE: 01 13 1981              CUMULATIVE TIME STEP:     105
 MODFLOW STRESS PERIOD      2     CURRENT TIME STEP:     105     ITERATIONS:       8

 -----------------------------------------------------------------------------------

   CUMULATIVE VOLUMES               L**3   RATES FOR THIS TIME STEP           L**3/T
   ------------------                      ------------------------

                                     IN                                         IN
                                     --                                         --
        PRECIPITATION =        5004445.50          PRECIPITATION =                  
           STREAMFLOW =                               STREAMFLOW =                  
     GW BOUNDARY FLOW =                         GW BOUNDARY FLOW =                  
                WELLS =                                    WELLS =                  


                                    OUT                                        OUT
                                    ---                                        ---
   EVAPOTRANSPIRATION =        2715598.50     EVAPOTRANSPIRATION =          42977.30
           STREAMFLOW =        1427294.63             STREAMFLOW =          21083.59
     GW BOUNDARY FLOW =          68206.47       GW BOUNDARY FLOW =            650.94
                WELLS =                                    WELLS =                  

   INFLOWS - OUTFLOWS =         793346.00     INFLOWS - OUTFLOWS =         -64711.83
             --------                                   --------

 TOTAL STORAGE CHANGE =         802239.75         STORAGE CHANGE =         -64653.17
       --------------                             --------------
         LAND SURFACE =         506161.22           LAND SURFACE =         -40670.09
            SOIL ZONE =        2219332.50              SOIL ZONE =         -11228.98
     UNSATURATED ZONE =       -1484161.38       UNSATURATED ZONE =          -6677.69
       SATURATED ZONE =        -439093.38         SATURATED ZONE =          -6076.41

 OVERALL BUDGET ERROR =          -8893.75           BUDGET ERROR =            -58.66


  PERCENT DISCREPANCY =             -0.18    PERCENT DISCREPANCY =             -0.09



1
 SUMMARY VOLUMETRIC BUDGET FOR GSFLOW 
 DATE: 01 20 1981              CUMULATIVE TIME STEP:     112
 MODFLOW STRESS PERIOD      2     CURRENT TIME STEP:     112     ITERATIONS:       8

 -----------------------------------------------------------------------------------

   CUMULATIVE VOLUMES               L**3   RATES FOR THIS TIME STEP           L**3/T
   ------------------                      ------------------------

                                     IN                                         IN
                                     --                                         --
        PRECIPITATION =        5170467.00          PRECIPITATION =          41505.35
           STREAMFLOW =                               STREAMFLOW =                  
     GW BOUNDARY FLOW =                         GW BOUNDARY FLOW =                  
                WELLS =                                    WELLS =                  


                                    OUT                                        OUT
                                    ---                                        ---
   EVAPOTRANSPIRATION =        3013684.00     EVAPOTRANSPIRATION =          54627.04
           STREAMFLOW =        1565433.25             STREAMFLOW =          19231.64
     GW BOUNDARY FLOW =          72761.13       GW BOUNDARY FLOW =            650.53
                WELLS =                                    WELLS =                  

   INFLOWS - OUTFLOWS =         518588.50     INFLOWS - OUTFLOWS =         -33003.85
             --------                                   --------

 TOTAL STORAGE CHANGE =         527982.75         STORAGE CHANGE =         -32941.46
       --------------                             --------------
         LAND SURFACE =         357515.44           LAND SURFACE =           4762.89
            SOIL ZONE =        2171990.50              SOIL ZONE =         -28218.33
     UNSATURATED ZONE =       -1517761.75       UNSATURATED ZONE =          -2784.36
       SATURATED ZONE =        -483762.41         SATURATED ZONE =          -6701.67

 OVERALL BUDGET ERROR =          -9394.25           BUDGET ERROR =            -62.39


  PERCENT DISCREPANCY =             -0.18    PERCENT DISCREPANCY =             -0.08



1
 SUMMARY VOLUMETRIC BUDGET FOR GSFLOW 
 DATE: 01 27 1981              CUMULATIVE TIME STEP:     119
 MODFLOW STRESS PERIOD      2     CURRENT TIME STEP:     119     ITERATIONS:       8

 -----------------------------------------------------------------------------------

   CUMULATIVE VOLUMES               L**3   RATES FOR THIS TIME STEP           L**3/T
   ------------------                      ------------------------

                                     IN                                         IN
                                     --                                         --
        PRECIPITATION =        8646540.00          PRECIPITATION =        2936503.75
           STREAMFLOW =                               STREAMFLOW =                  
     GW BOUNDARY FLOW =                         GW BOUNDARY FLOW =                  
                WELLS =                                    WELLS =                  


                                    OUT                                        OUT
                                    ---                                        ---
   EVAPOTRANSPIRATION =        3245432.75     EVAPOTRANSPIRATION =          12594.32
           STREAMFLOW =        1694636.75             STREAMFLOW =          17869.85
     GW BOUNDARY FLOW =          77313.70       GW BOUNDARY FLOW =            650.27
                WELLS =                                    WELLS =                  

   INFLOWS - OUTFLOWS =        3629157.00     INFLOWS - OUTFLOWS =        2905389.25
             --------                                   --------

 TOTAL STORAGE CHANGE =        3638950.75         STORAGE CHANGE =        2905454.25
       --------------                             --------------
         LAND SURFACE =        3508554.25           LAND SURFACE =        2923909.50
            SOIL ZONE =        2188538.00              SOIL ZONE =          -4778.59
     UNSATURATED ZONE =       -1528171.88       UNSATURATED ZONE =          -6626.02
       SATURATED ZONE =        -529970.44         SATURATED ZONE =          -7050.58

 OVERALL BUDGET ERROR =          -9793.75           BUDGET ERROR =            -65.00


  PERCENT DISCREPANCY =             -0.11    PERCENT DISCREPANCY =             -0.00



1
 SUMMARY VOLUMETRIC BUDGET FOR GSFLOW 
 DATE: 02 03 1981              CUMULATIVE TIME STEP:     126
 MODFLOW STRESS PERIOD      2     CURRENT TIME STEP:     126     ITERATIONS:       8

 -----------------------------------------------------------------------------------

   CUMULATIVE VOLUMES               L**3   RATES FOR THIS TIME STEP           L**3/T
   ------------------                      ------------------------

                                     IN                                         IN
                                     --                                         --
        PRECIPITATION =        1.1739E+07          PRECIPITATION =                  
           STREAMFLOW =                               STREAMFLOW =                  
     GW BOUNDARY FLOW =                         GW BOUNDARY FLOW =                  
                WELLS =                                    WELLS =                  


                                    OUT                                        OUT
                                    ---                                        ---
   EVAPOTRANSPIRATION =        3282776.25     EVAPOTRANSPIRATION =           8129.77
           STREAMFLOW =        1818524.38             STREAMFLOW =          17753.38
     GW BOUNDARY FLOW =          81865.15       GW BOUNDARY FLOW =            650.21
                WELLS =                                    WELLS =                  

   INFLOWS - OUTFLOWS =        6555523.00     INFLOWS - OUTFLOWS =         -26533.36
             --------                                   --------

 TOTAL STORAGE CHANGE =        6565822.50         STORAGE CHANGE =         -26459.59
       --------------                             --------------
         LAND SURFACE =        6563360.00           LAND SURFACE =          -8129.65
            SOIL ZONE =        2184394.25              SOIL ZONE =            795.90
     UNSATURATED ZONE =       -1599486.00       UNSATURATED ZONE =         -11316.01
       SATURATED ZONE =        -582445.75         SATURATED ZONE =          -7809.82

 OVERALL BUDGET ERROR =         -10299.50           BUDGET ERROR =            -73.77


  PERCENT DISCREPANCY =             -0.09    PERCENT DISCREPANCY =             -0.28



1
 SUMMARY VOLUMETRIC BUDGET FOR GSFLOW 
 DATE: 02 10 1981              CUMULATIVE TIME STEP:     133
 MODFLOW STRESS PERIOD      2     CURRENT TIME STEP:     133     ITERATIONS:       8

 -----------------------------------------------------------------------------------

   CUMULATIVE VOLUMES               L**3   RATES FOR THIS TIME STEP           L**3/T
   ------------------                      ------------------------

                                     IN                                         IN
                                     --                                         --
        PRECIPITATION =        1.1838E+07          PRECIPITATION =                  
           STREAMFLOW =                               STREAMFLOW =                  
     GW BOUNDARY FLOW =                         GW BOUNDARY FLOW =                  
                WELLS =                                    WELLS =                  


                                    OUT                                        OUT
                                    ---                                        ---
   EVAPOTRANSPIRATION =        3416577.00     EVAPOTRANSPIRATION =          34655.68
           STREAMFLOW =        1943630.63             STREAMFLOW =          17931.87
     GW BOUNDARY FLOW =          86416.67       GW BOUNDARY FLOW =            650.22
                WELLS =                                    WELLS =                  

   INFLOWS - OUTFLOWS =        6391629.50     INFLOWS - OUTFLOWS =         -53237.77
             --------                                   --------

 TOTAL STORAGE CHANGE =        6402429.00         STORAGE CHANGE =         -53166.66
       --------------                             --------------
         LAND SURFACE =        6529122.00           LAND SURFACE =         -34655.83
            SOIL ZONE =        2189556.50              SOIL ZONE =            668.27
     UNSATURATED ZONE =       -1676527.25       UNSATURATED ZONE =         -10766.24
       SATURATED ZONE =        -639723.38         SATURATED ZONE =          -8412.87

 OVERALL BUDGET ERROR =         -10799.50           BUDGET ERROR =            -71.11


  PERCENT DISCREPANCY =             -0.09    PERCENT DISCREPANCY =             -0.13



1
 SUMMARY VOLUMETRIC BUDGET FOR GSFLOW 
 DATE: 02 17 1981              CUMULATIVE TIME STEP:     140
 MODFLOW STRESS PERIOD      2     CURRENT TIME STEP:     140     ITERATIONS:      16

 -----------------------------------------------------------------------------------

   CUMULATIVE VOLUMES               L**3   RATES FOR THIS TIME STEP           L**3/T
   ------------------                      ------------------------

                                     IN                                         IN
                                     --                                         --
        PRECIPITATION =        1.2765E+07          PRECIPITATION =          68929.27
           STREAMFLOW =                               STREAMFLOW =                  
     GW BOUNDARY FLOW =                         GW BOUNDARY FLOW =                  
                WELLS =                                    WELLS =                  


                                    OUT                                        OUT
                                    ---                                        ---
   EVAPOTRANSPIRATION =        3759708.00     EVAPOTRANSPIRATION =          68102.27
           STREAMFLOW =        2308311.25             STREAMFLOW =          89790.08
     GW BOUNDARY FLOW =          90983.19       GW BOUNDARY FLOW =            655.38
                WELLS =                                    WELLS =                  

   INFLOWS - OUTFLOWS =        6605965.50     INFLOWS - OUTFLOWS =         -89618.46
             --------                                   --------

 TOTAL STORAGE CHANGE =        6617193.00         STORAGE CHANGE =         -89582.57
       --------------                             --------------
         LAND SURFACE =        5572063.00           LAND SURFACE =        -287679.06
            SOIL ZONE =        3106783.00              SOIL ZONE =         106420.00
     UNSATURATED ZONE =       -1405908.13       UNSATURATED ZONE =          88364.17
       SATURATED ZONE =        -655745.56         SATURATED ZONE =           3312.31

 OVERALL BUDGET ERROR =         -11227.50           BUDGET ERROR =            -35.89


  PERCENT DISCREPANCY =             -0.09    PERCENT DISCREPANCY =             -0.02



1
 SUMMARY VOLUMETRIC BUDGET FOR GSFLOW 
 DATE: 02 24 1981              CUMULATIVE TIME STEP:     147
 MODFLOW STRESS PERIOD      2     CURRENT TIME STEP:     147     ITERATIONS:      14

 -----------------------------------------------------------------------------------

   CUMULATIVE VOLUMES               L**3   RATES FOR THIS TIME STEP           L**3/T
   ------------------                      ------------------------

                                     IN                                         IN
                                     --                                         --
        PRECIPITATION =        1.3179E+07          PRECIPITATION =         344646.31
           STREAMFLOW =                               STREAMFLOW =                  
     GW BOUNDARY FLOW =                         GW BOUNDARY FLOW =                  
                WELLS =                                    WELLS =                  


                                    OUT                                        OUT
                                    ---                                        ---
   EVAPOTRANSPIRATION =        4108468.75     EVAPOTRANSPIRATION =          19833.49
           STREAMFLOW =        2873987.25             STREAMFLOW =          60707.81
     GW BOUNDARY FLOW =          95578.11       GW BOUNDARY FLOW =            656.01
                WELLS =                                    WELLS =                  

   INFLOWS - OUTFLOWS =        6100509.00     INFLOWS - OUTFLOWS =         263449.00
             --------                                   --------

 TOTAL STORAGE CHANGE =        6111828.00         STORAGE CHANGE =         263450.00
       --------------                             --------------
         LAND SURFACE =        4880962.00           LAND SURFACE =         299478.63
            SOIL ZONE =        2809772.75              SOIL ZONE =         -78408.75
     UNSATURATED ZONE =        -970593.56       UNSATURATED ZONE =          36155.97
       SATURATED ZONE =        -608314.25         SATURATED ZONE =           6224.14

 OVERALL BUDGET ERROR =         -11319.00           BUDGET ERROR =             -1.00


  PERCENT DISCREPANCY =             -0.09    PERCENT DISCREPANCY =             -0.00



1
 SUMMARY VOLUMETRIC BUDGET FOR GSFLOW 
 DATE: 03 03 1981              CUMULATIVE TIME STEP:     154
 MODFLOW STRESS PERIOD      2     CURRENT TIME STEP:     154     ITERATIONS:      13

 -----------------------------------------------------------------------------------

   CUMULATIVE VOLUMES               L**3   RATES FOR THIS TIME STEP           L**3/T
   ------------------                      ------------------------

                                     IN                                         IN
                                     --                                         --
        PRECIPITATION =        1.3447E+07          PRECIPITATION =                  
           STREAMFLOW =                               STREAMFLOW =                  
     GW BOUNDARY FLOW =                         GW BOUNDARY FLOW =                  
                WELLS =                                    WELLS =                  


                                    OUT                                        OUT
                                    ---                                        ---
   EVAPOTRANSPIRATION =        4271103.50     EVAPOTRANSPIRATION =          44522.60
           STREAMFLOW =        3134046.75             STREAMFLOW =          28680.38
     GW BOUNDARY FLOW =         100155.56       GW BOUNDARY FLOW =            652.61
                WELLS =                                    WELLS =                  

   INFLOWS - OUTFLOWS =        5941295.00     INFLOWS - OUTFLOWS =         -73855.59
             --------                                   --------

 TOTAL STORAGE CHANGE =        5952718.50         STORAGE CHANGE =         -73847.30
       --------------                             --------------
         LAND SURFACE =        4965147.00           LAND SURFACE =         -64104.69
            SOIL ZONE =        2526487.00              SOIL ZONE =          -1323.88
     UNSATURATED ZONE =        -944976.56       UNSATURATED ZONE =          -8370.66
       SATURATED ZONE =        -593940.00         SATURATED ZONE =            -48.08

 OVERALL BUDGET ERROR =         -11423.50           BUDGET ERROR =             -8.28


  PERCENT DISCREPANCY =             -0.08    PERCENT DISCREPANCY =             -0.01



1
 SUMMARY VOLUMETRIC BUDGET FOR GSFLOW 
 DATE: 03 10 1981              CUMULATIVE TIME STEP:     161
 MODFLOW STRESS PERIOD      2     CURRENT TIME STEP:     161     ITERATIONS:      13

 -----------------------------------------------------------------------------------

   CUMULATIVE VOLUMES               L**3   RATES FOR THIS TIME STEP           L**3/T
   ------------------                      ------------------------

                                     IN                                         IN
                                     --                                         --
        PRECIPITATION =        1.3493E+07          PRECIPITATION =                  
           STREAMFLOW =                               STREAMFLOW =                  
     GW BOUNDARY FLOW =                         GW BOUNDARY FLOW =                  
                WELLS =                                    WELLS =                  


                                    OUT                                        OUT
                                    ---                                        ---
   EVAPOTRANSPIRATION =        4587991.00     EVAPOTRANSPIRATION =          63183.23
           STREAMFLOW =        3359626.00             STREAMFLOW =          39707.80
     GW BOUNDARY FLOW =         104722.07       GW BOUNDARY FLOW =            652.84
                WELLS =                                    WELLS =                  

   INFLOWS - OUTFLOWS =        5440600.00     INFLOWS - OUTFLOWS =        -103543.88
             --------                                   --------

 TOTAL STORAGE CHANGE =        5452170.50         STORAGE CHANGE =        -103519.55
       --------------                             --------------
         LAND SURFACE =        4285741.50           LAND SURFACE =        -166602.50
            SOIL ZONE =        2669197.00              SOIL ZONE =          38802.97
     UNSATURATED ZONE =        -910014.69       UNSATURATED ZONE =          23060.22
       SATURATED ZONE =        -592753.88         SATURATED ZONE =           1219.76

 OVERALL BUDGET ERROR =         -11570.50           BUDGET ERROR =            -24.34


  PERCENT DISCREPANCY =             -0.09    PERCENT DISCREPANCY =             -0.02



1
 SUMMARY VOLUMETRIC BUDGET FOR GSFLOW 
 DATE: 03 17 1981              CUMULATIVE TIME STEP:     168
 MODFLOW STRESS PERIOD      2     CURRENT TIME STEP:     168     ITERATIONS:      11

 -----------------------------------------------------------------------------------

   CUMULATIVE VOLUMES               L**3   RATES FOR THIS TIME STEP           L**3/T
   ------------------                      ------------------------

                                     IN                                         IN
                                     --                                         --
        PRECIPITATION =        1.3744E+07          PRECIPITATION =                  
           STREAMFLOW =                               STREAMFLOW =                  
     GW BOUNDARY FLOW =                         GW BOUNDARY FLOW =                  
                WELLS =                                    WELLS =                  


                                    OUT                                        OUT
                                    ---                                        ---
   EVAPOTRANSPIRATION =        4944463.50     EVAPOTRANSPIRATION =          39557.79
           STREAMFLOW =        3603929.00             STREAMFLOW =          26789.48
     GW BOUNDARY FLOW =         109291.47       GW BOUNDARY FLOW =            652.36
                WELLS =                                    WELLS =                  

   INFLOWS - OUTFLOWS =        5086805.00     INFLOWS - OUTFLOWS =         -66999.63
             --------                                   --------

 TOTAL STORAGE CHANGE =        5098473.00         STORAGE CHANGE =         -66975.37
       --------------                             --------------
         LAND SURFACE =        4101663.00           LAND SURFACE =         -39206.70
            SOIL ZONE =        2476553.00              SOIL ZONE =          -8078.28
     UNSATURATED ZONE =        -882150.19       UNSATURATED ZONE =         -16946.65
       SATURATED ZONE =        -597593.00         SATURATED ZONE =          -2743.73

 OVERALL BUDGET ERROR =         -11668.00           BUDGET ERROR =            -24.27


  PERCENT DISCREPANCY =             -0.08    PERCENT DISCREPANCY =             -0.04



1
 SUMMARY VOLUMETRIC BUDGET FOR GSFLOW 
 DATE: 03 24 1981              CUMULATIVE TIME STEP:     175
 MODFLOW STRESS PERIOD      2     CURRENT TIME STEP:     175     ITERATIONS:      10

 -----------------------------------------------------------------------------------

   CUMULATIVE VOLUMES               L**3   RATES FOR THIS TIME STEP           L**3/T
   ------------------                      ------------------------

                                     IN                                         IN
                                     --                                         --
        PRECIPITATION =        1.4367E+07          PRECIPITATION =                  
           STREAMFLOW =                               STREAMFLOW =                  
     GW BOUNDARY FLOW =                         GW BOUNDARY FLOW =                  
                WELLS =                                    WELLS =                  


                                    OUT                                        OUT
                                    ---                                        ---
   EVAPOTRANSPIRATION =        5297520.50     EVAPOTRANSPIRATION =          85696.13
           STREAMFLOW =        3778742.75             STREAMFLOW =          28078.07
     GW BOUNDARY FLOW =         113853.17       GW BOUNDARY FLOW =            651.49
                WELLS =                                    WELLS =                  

   INFLOWS - OUTFLOWS =        5176628.00     INFLOWS - OUTFLOWS =        -114425.69
             --------                                   --------

 TOTAL STORAGE CHANGE =        5188485.50         STORAGE CHANGE =        -114392.52
       --------------                             --------------
         LAND SURFACE =        4399756.50           LAND SURFACE =         -79293.00
            SOIL ZONE =        2377788.25              SOIL ZONE =         -27321.47
     UNSATURATED ZONE =        -966868.88       UNSATURATED ZONE =          -4198.16
       SATURATED ZONE =        -622191.00         SATURATED ZONE =          -3579.90

 OVERALL BUDGET ERROR =         -11857.50           BUDGET ERROR =            -33.16


  PERCENT DISCREPANCY =             -0.08    PERCENT DISCREPANCY =             -0.03



1
 SUMMARY VOLUMETRIC BUDGET FOR GSFLOW 
 DATE: 03 31 1981              CUMULATIVE TIME STEP:     182
 MODFLOW STRESS PERIOD      2     CURRENT TIME STEP:     182     ITERATIONS:      12

 -----------------------------------------------------------------------------------

   CUMULATIVE VOLUMES               L**3   RATES FOR THIS TIME STEP           L**3/T
   ------------------                      ------------------------

                                     IN                                         IN
                                     --                                         --
        PRECIPITATION =        1.5777E+07          PRECIPITATION =                  
           STREAMFLOW =                               STREAMFLOW =                  
     GW BOUNDARY FLOW =                         GW BOUNDARY FLOW =                  
                WELLS =                                    WELLS =                  


                                    OUT                                        OUT
                                    ---                                        ---
   EVAPOTRANSPIRATION =        5723030.50     EVAPOTRANSPIRATION =          55419.54
           STREAMFLOW =        4178070.25             STREAMFLOW =          43845.91
     GW BOUNDARY FLOW =         118430.62       GW BOUNDARY FLOW =            654.00
                WELLS =                                    WELLS =                  

   INFLOWS - OUTFLOWS =        5757216.00     INFLOWS - OUTFLOWS =         -99919.45
             --------                                   --------

 TOTAL STORAGE CHANGE =        5769172.00         STORAGE CHANGE =         -99912.43
       --------------                             --------------
         LAND SURFACE =        4507375.00           LAND SURFACE =         -57644.48
            SOIL ZONE =        2598177.75              SOIL ZONE =         -49911.78
     UNSATURATED ZONE =        -731584.50       UNSATURATED ZONE =           6778.71
       SATURATED ZONE =        -604798.44         SATURATED ZONE =            865.13

 OVERALL BUDGET ERROR =         -11956.00           BUDGET ERROR =             -7.02


  PERCENT DISCREPANCY =             -0.08    PERCENT DISCREPANCY =             -0.01



1
 SUMMARY VOLUMETRIC BUDGET FOR GSFLOW 
 DATE: 04 07 1981              CUMULATIVE TIME STEP:     189
 MODFLOW STRESS PERIOD      2     CURRENT TIME STEP:     189     ITERATIONS:      10

 -----------------------------------------------------------------------------------

   CUMULATIVE VOLUMES               L**3   RATES FOR THIS TIME STEP           L**3/T
   ------------------                      ------------------------

                                     IN                                         IN
                                     --                                         --
        PRECIPITATION =        1.6121E+07          PRECIPITATION =                  
           STREAMFLOW =                               STREAMFLOW =                  
     GW BOUNDARY FLOW =                         GW BOUNDARY FLOW =                  
                WELLS =                                    WELLS =                  


                                    OUT                                        OUT
                                    ---                                        ---
   EVAPOTRANSPIRATION =        6355578.50     EVAPOTRANSPIRATION =         106275.35
           STREAMFLOW =        4492706.00             STREAMFLOW =          46999.96
     GW BOUNDARY FLOW =         123007.87       GW BOUNDARY FLOW =            654.04
                WELLS =                                    WELLS =                  

   INFLOWS - OUTFLOWS =        5150174.00     INFLOWS - OUTFLOWS =        -153929.34
             --------                                   --------

 TOTAL STORAGE CHANGE =        5162149.00         STORAGE CHANGE =        -153941.22
       --------------                             --------------
         LAND SURFACE =        3856728.75           LAND SURFACE =        -144614.75
            SOIL ZONE =        2537006.50              SOIL ZONE =         -23055.28
     UNSATURATED ZONE =        -644379.00       UNSATURATED ZONE =          11199.66
       SATURATED ZONE =        -587209.31         SATURATED ZONE =           2529.15

 OVERALL BUDGET ERROR =         -11975.00           BUDGET ERROR =             11.88


  PERCENT DISCREPANCY =             -0.07    PERCENT DISCREPANCY =              0.01



1
 SUMMARY VOLUMETRIC BUDGET FOR GSFLOW 
 DATE: 04 14 1981              CUMULATIVE TIME STEP:     196
 MODFLOW STRESS PERIOD      2     CURRENT TIME STEP:     196     ITERATIONS:      14

 -----------------------------------------------------------------------------------

   CUMULATIVE VOLUMES               L**3   RATES FOR THIS TIME STEP           L**3/T
   ------------------                      ------------------------

                                     IN                                         IN
                                     --                                         --
        PRECIPITATION =        1.6121E+07          PRECIPITATION =                  
           STREAMFLOW =                               STREAMFLOW =                  
     GW BOUNDARY FLOW =                         GW BOUNDARY FLOW =                  
                WELLS =                                    WELLS =                  


                                    OUT                                        OUT
                                    ---                                        ---
   EVAPOTRANSPIRATION =        7282614.00     EVAPOTRANSPIRATION =         190847.38
           STREAMFLOW =        4797431.00             STREAMFLOW =          45266.82
     GW BOUNDARY FLOW =         127583.52       GW BOUNDARY FLOW =            653.18
                WELLS =                                    WELLS =                  

   INFLOWS - OUTFLOWS =        3913837.00     INFLOWS - OUTFLOWS =        -236767.38
             --------                                   --------

 TOTAL STORAGE CHANGE =        3925790.25         STORAGE CHANGE =        -236778.13
       --------------                             --------------
         LAND SURFACE =        2607071.25           LAND SURFACE =        -246925.00
            SOIL ZONE =        2442977.25              SOIL ZONE =         -13715.25
     UNSATURATED ZONE =        -558451.94       UNSATURATED ZONE =          19788.30
       SATURATED ZONE =        -565808.81         SATURATED ZONE =           4073.83

 OVERALL BUDGET ERROR =         -11953.25           BUDGET ERROR =             10.75


  PERCENT DISCREPANCY =             -0.07    PERCENT DISCREPANCY =              0.00



1
 SUMMARY VOLUMETRIC BUDGET FOR GSFLOW 
 DATE: 04 21 1981              CUMULATIVE TIME STEP:     203
 MODFLOW STRESS PERIOD      2     CURRENT TIME STEP:     203     ITERATIONS:      13

 -----------------------------------------------------------------------------------

   CUMULATIVE VOLUMES               L**3   RATES FOR THIS TIME STEP           L**3/T
   ------------------                      ------------------------

                                     IN                                         IN
                                     --                                         --
        PRECIPITATION =        1.6310E+07          PRECIPITATION =                  
           STREAMFLOW =                               STREAMFLOW =                  
     GW BOUNDARY FLOW =                         GW BOUNDARY FLOW =                  
                WELLS =                                    WELLS =                  


                                    OUT                                        OUT
                                    ---                                        ---
   EVAPOTRANSPIRATION =        8361174.00     EVAPOTRANSPIRATION =         153991.03
           STREAMFLOW =        5098255.50             STREAMFLOW =          41529.79
     GW BOUNDARY FLOW =         132151.61       GW BOUNDARY FLOW =            652.19
                WELLS =                                    WELLS =                  

   INFLOWS - OUTFLOWS =        2718660.00     INFLOWS - OUTFLOWS =        -196173.02
             --------                                   --------

 TOTAL STORAGE CHANGE =        2730544.50         STORAGE CHANGE =        -196188.61
       --------------                             --------------
         LAND SURFACE =        1437174.38           LAND SURFACE =        -120343.75
            SOIL ZONE =        2274929.50              SOIL ZONE =         -96994.63
     UNSATURATED ZONE =        -445191.34       UNSATURATED ZONE =          16715.12
       SATURATED ZONE =        -536370.75         SATURATED ZONE =           4434.64

 OVERALL BUDGET ERROR =         -11884.50           BUDGET ERROR =             15.59


  PERCENT DISCREPANCY =             -0.07    PERCENT DISCREPANCY =              0.01



1
 SUMMARY VOLUMETRIC BUDGET FOR GSFLOW 
 DATE: 04 28 1981              CUMULATIVE TIME STEP:     210
 MODFLOW STRESS PERIOD      2     CURRENT TIME STEP:     210     ITERATIONS:      14

 -----------------------------------------------------------------------------------

   CUMULATIVE VOLUMES               L**3   RATES FOR THIS TIME STEP           L**3/T
   ------------------                      ------------------------

                                     IN                                         IN
                                     --                                         --
        PRECIPITATION =        1.6515E+07          PRECIPITATION =                  
           STREAMFLOW =                               STREAMFLOW =                  
     GW BOUNDARY FLOW =                         GW BOUNDARY FLOW =                  
                WELLS =                                    WELLS =                  


                                    OUT                                        OUT
                                    ---                                        ---
   EVAPOTRANSPIRATION =        9613591.00     EVAPOTRANSPIRATION =         201317.70
           STREAMFLOW =        5299422.50             STREAMFLOW =          21643.04
     GW BOUNDARY FLOW =         136709.70       GW BOUNDARY FLOW =            650.30
                WELLS =                                    WELLS =                  

   INFLOWS - OUTFLOWS =        1465708.00     INFLOWS - OUTFLOWS =        -223611.05
             --------                                   --------

 TOTAL STORAGE CHANGE =        1477543.88         STORAGE CHANGE =        -223618.97
       --------------                             --------------
         LAND SURFACE =         719232.06           LAND SURFACE =         -80881.88
            SOIL ZONE =        1732626.63              SOIL ZONE =        -138288.92
     UNSATURATED ZONE =        -455424.91       UNSATURATED ZONE =          -5652.77
       SATURATED ZONE =        -518892.75         SATURATED ZONE =           1204.61

 OVERALL BUDGET ERROR =         -11835.88           BUDGET ERROR =              7.92


  PERCENT DISCREPANCY =             -0.07    PERCENT DISCREPANCY =              0.00



1
 SUMMARY VOLUMETRIC BUDGET FOR GSFLOW 
 DATE: 05 05 1981              CUMULATIVE TIME STEP:     217
 MODFLOW STRESS PERIOD      2     CURRENT TIME STEP:     217     ITERATIONS:      14

 -----------------------------------------------------------------------------------

   CUMULATIVE VOLUMES               L**3   RATES FOR THIS TIME STEP           L**3/T
   ------------------                      ------------------------

                                     IN                                         IN
                                     --                                         --
        PRECIPITATION =        1.6515E+07          PRECIPITATION =                  
           STREAMFLOW =                               STREAMFLOW =                  
     GW BOUNDARY FLOW =                         GW BOUNDARY FLOW =                  
                WELLS =                                    WELLS =                  


                                    OUT                                        OUT
                                    ---                                        ---
   EVAPOTRANSPIRATION =        1.0473E+07     EVAPOTRANSPIRATION =          53275.88
           STREAMFLOW =        5399346.50             STREAMFLOW =          10870.59
     GW BOUNDARY FLOW =         141255.34       GW BOUNDARY FLOW =            648.79
                WELLS =                                    WELLS =                  

   INFLOWS - OUTFLOWS =         501992.00     INFLOWS - OUTFLOWS =         -64795.27
             --------                                   --------

 TOTAL STORAGE CHANGE =         513905.84         STORAGE CHANGE =         -64780.48
       --------------                             --------------
         LAND SURFACE =         378462.03           LAND SURFACE =         -18046.09
            SOIL ZONE =        1217791.63              SOIL ZONE =         -27700.47
     UNSATURATED ZONE =        -557333.38       UNSATURATED ZONE =         -16865.05
       SATURATED ZONE =        -525017.31         SATURATED ZONE =          -2168.86

 OVERALL BUDGET ERROR =         -11913.84           BUDGET ERROR =            -14.79


  PERCENT DISCREPANCY =             -0.07    PERCENT DISCREPANCY =             -0.02



1
 SUMMARY VOLUMETRIC BUDGET FOR GSFLOW 
 DATE: 05 12 1981              CUMULATIVE TIME STEP:     224
 MODFLOW STRESS PERIOD      2     CURRENT TIME STEP:     224     ITERATIONS:      20

 -----------------------------------------------------------------------------------

   CUMULATIVE VOLUMES               L**3   RATES FOR THIS TIME STEP           L**3/T
   ------------------                      ------------------------

                                     IN                                         IN
                                     --                                         --
        PRECIPITATION =        1.6515E+07          PRECIPITATION =                  
           STREAMFLOW =                               STREAMFLOW =                  
     GW BOUNDARY FLOW =                         GW BOUNDARY FLOW =                  
                WELLS =                                    WELLS =                  


                                    OUT                                        OUT
                                    ---                                        ---
   EVAPOTRANSPIRATION =        1.0966E+07     EVAPOTRANSPIRATION =          88580.70
           STREAMFLOW =        5468454.50             STREAMFLOW =           9855.27
     GW BOUNDARY FLOW =         145794.08       GW BOUNDARY FLOW =            648.22
                WELLS =                                    WELLS =                  

   INFLOWS - OUTFLOWS =         -64629.00     INFLOWS - OUTFLOWS =         -99084.18
             --------                                   --------

 TOTAL STORAGE CHANGE =         -52551.21         STORAGE CHANGE =         -99058.40
       --------------                             --------------
         LAND SURFACE =         225205.50           LAND SURFACE =         -27155.73
            SOIL ZONE =         938276.19              SOIL ZONE =         -53218.64
     UNSATURATED ZONE =        -664409.88       UNSATURATED ZONE =         -13908.70
       SATURATED ZONE =        -551625.75         SATURATED ZONE =          -4775.33

 OVERALL BUDGET ERROR =         -12077.79           BUDGET ERROR =            -25.78


  PERCENT DISCREPANCY =             -0.07    PERCENT DISCREPANCY =             -0.03



1
 SUMMARY VOLUMETRIC BUDGET FOR GSFLOW 
 DATE: 05 19 1981              CUMULATIVE TIME STEP:     231
 MODFLOW STRESS PERIOD      2     CURRENT TIME STEP:     231     ITERATIONS:      20

 -----------------------------------------------------------------------------------

   CUMULATIVE VOLUMES               L**3   RATES FOR THIS TIME STEP           L**3/T
   ------------------                      ------------------------

                                     IN                                         IN
                                     --                                         --
        PRECIPITATION =        1.7837E+07          PRECIPITATION =         169045.42
           STREAMFLOW =                               STREAMFLOW =                  
     GW BOUNDARY FLOW =                         GW BOUNDARY FLOW =                  
                WELLS =                                    WELLS =                  


                                    OUT                                        OUT
                                    ---                                        ---
   EVAPOTRANSPIRATION =        1.1360E+07     EVAPOTRANSPIRATION =          31098.90
           STREAMFLOW =        5569954.00             STREAMFLOW =          25235.37
     GW BOUNDARY FLOW =         150332.58       GW BOUNDARY FLOW =            649.06
                WELLS =                                    WELLS =                  

   INFLOWS - OUTFLOWS =         756772.00     INFLOWS - OUTFLOWS =         112062.09
             --------                                   --------

 TOTAL STORAGE CHANGE =         768992.13         STORAGE CHANGE =         112068.98
       --------------                             --------------
         LAND SURFACE =         194184.73           LAND SURFACE =          20899.68
            SOIL ZONE =        1889350.75              SOIL ZONE =          95112.94
     UNSATURATED ZONE =        -730919.38       UNSATURATED ZONE =           -478.81
       SATURATED ZONE =        -583626.63         SATURATED ZONE =          -3464.82

 OVERALL BUDGET ERROR =         -12220.13           BUDGET ERROR =             -6.89


  PERCENT DISCREPANCY =             -0.07    PERCENT DISCREPANCY =             -0.00



1
 SUMMARY VOLUMETRIC BUDGET FOR GSFLOW 
 DATE: 05 26 1981              CUMULATIVE TIME STEP:     238
 MODFLOW STRESS PERIOD      2     CURRENT TIME STEP:     238     ITERATIONS:      18

 -----------------------------------------------------------------------------------

   CUMULATIVE VOLUMES               L**3   RATES FOR THIS TIME STEP           L**3/T
   ------------------                      ------------------------

                                     IN                                         IN
                                     --                                         --
        PRECIPITATION =        1.8252E+07          PRECIPITATION =         284303.69
           STREAMFLOW =                               STREAMFLOW =                  
     GW BOUNDARY FLOW =                         GW BOUNDARY FLOW =                  
                WELLS =                                    WELLS =                  


                                    OUT                                        OUT
                                    ---                                        ---
   EVAPOTRANSPIRATION =        1.2206E+07     EVAPOTRANSPIRATION =         134158.22
           STREAMFLOW =        5682153.00             STREAMFLOW =          16041.26
     GW BOUNDARY FLOW =         154873.78       GW BOUNDARY FLOW =            648.47
                WELLS =                                    WELLS =                  

   INFLOWS - OUTFLOWS =         209368.00     INFLOWS - OUTFLOWS =         133455.73
             --------                                   --------

 TOTAL STORAGE CHANGE =         221771.25         STORAGE CHANGE =         133481.11
       --------------                             --------------
         LAND SURFACE =         117521.54           LAND SURFACE =          -7365.63
            SOIL ZONE =        1520689.50              SOIL ZONE =         156992.45
     UNSATURATED ZONE =        -794061.88       UNSATURATED ZONE =         -10119.72
       SATURATED ZONE =        -622380.50         SATURATED ZONE =          -6025.99

 OVERALL BUDGET ERROR =         -12403.25           BUDGET ERROR =            -25.38


  PERCENT DISCREPANCY =             -0.07    PERCENT DISCREPANCY =             -0.01



1
 SUMMARY VOLUMETRIC BUDGET FOR GSFLOW 
 DATE: 06 02 1981              CUMULATIVE TIME STEP:     245
 MODFLOW STRESS PERIOD      2     CURRENT TIME STEP:     245     ITERATIONS:      18

 -----------------------------------------------------------------------------------

   CUMULATIVE VOLUMES               L**3   RATES FOR THIS TIME STEP           L**3/T
   ------------------                      ------------------------

                                     IN                                         IN
                                     --                                         --
        PRECIPITATION =        1.8318E+07          PRECIPITATION =          50869.96
           STREAMFLOW =                               STREAMFLOW =                  
     GW BOUNDARY FLOW =                         GW BOUNDARY FLOW =                  
                WELLS =                                    WELLS =                  


                                    OUT                                        OUT
                                    ---                                        ---
   EVAPOTRANSPIRATION =        1.2995E+07     EVAPOTRANSPIRATION =          79566.41
           STREAMFLOW =        5757989.00             STREAMFLOW =           8220.53
     GW BOUNDARY FLOW =         159410.06       GW BOUNDARY FLOW =            647.63
                WELLS =                                    WELLS =                  

   INFLOWS - OUTFLOWS =        -594548.00     INFLOWS - OUTFLOWS =         -37564.61
             --------                                   --------

 TOTAL STORAGE CHANGE =        -581921.19         STORAGE CHANGE =         -37531.00
       --------------                             --------------
         LAND SURFACE =          73955.42           LAND SURFACE =          28859.94
            SOIL ZONE =         902059.13              SOIL ZONE =         -44969.18
     UNSATURATED ZONE =        -885509.44       UNSATURATED ZONE =         -13727.77
       SATURATED ZONE =        -672428.94         SATURATED ZONE =          -7693.99

 OVERALL BUDGET ERROR =         -12626.81           BUDGET ERROR =            -33.61


  PERCENT DISCREPANCY =             -0.07    PERCENT DISCREPANCY =             -0.04



1
 SUMMARY VOLUMETRIC BUDGET FOR GSFLOW 
 DATE: 06 09 1981              CUMULATIVE TIME STEP:     252
 MODFLOW STRESS PERIOD      2     CURRENT TIME STEP:     252     ITERATIONS:      15

 -----------------------------------------------------------------------------------

   CUMULATIVE VOLUMES               L**3   RATES FOR THIS TIME STEP           L**3/T
   ------------------                      ------------------------

                                     IN                                         IN
                                     --                                         --
        PRECIPITATION =        1.8318E+07          PRECIPITATION =                  
           STREAMFLOW =                               STREAMFLOW =                  
     GW BOUNDARY FLOW =                         GW BOUNDARY FLOW =                  
[...]
   ------------------                      ------------------------

                                     IN                                         IN
                                     --                                         --
        PRECIPITATION =        4.6511E+08          PRECIPITATION =                  
           STREAMFLOW =                               STREAMFLOW =                  
     GW BOUNDARY FLOW =                         GW BOUNDARY FLOW =                  
                WELLS =                                    WELLS =                  


                                    OUT                                        OUT
                                    ---                                        ---
   EVAPOTRANSPIRATION =        2.9058E+08     EVAPOTRANSPIRATION =          26075.91
           STREAMFLOW =        1.7553E+08             STREAMFLOW =           8123.44
     GW BOUNDARY FLOW =        3756219.50       GW BOUNDARY FLOW =            655.91
                WELLS =                                    WELLS =                  

   INFLOWS - OUTFLOWS =       -4750688.00     INFLOWS - OUTFLOWS =         -34855.27
             --------                                   --------

 TOTAL STORAGE CHANGE =       -4565964.50         STORAGE CHANGE =         -34868.25
       --------------                             --------------
         LAND SURFACE =            321.60           LAND SURFACE =           -298.58
            SOIL ZONE =         199552.09              SOIL ZONE =          -9744.09
     UNSATURATED ZONE =        3768550.50       UNSATURATED ZONE =         -29786.92
       SATURATED ZONE =       -8534357.00         SATURATED ZONE =           4961.34

 OVERALL BUDGET ERROR =        -184723.50           BUDGET ERROR =             12.98


  PERCENT DISCREPANCY =             -0.04    PERCENT DISCREPANCY =              0.04



1
 SUMMARY VOLUMETRIC BUDGET FOR GSFLOW 
 DATE: 08 06 1996              CUMULATIVE TIME STEP:    5789
 MODFLOW STRESS PERIOD      2     CURRENT TIME STEP:    5789     ITERATIONS:      17

 -----------------------------------------------------------------------------------

   CUMULATIVE VOLUMES               L**3   RATES FOR THIS TIME STEP           L**3/T
   ------------------                      ------------------------

                                     IN                                         IN
                                     --                                         --
        PRECIPITATION =        4.6511E+08          PRECIPITATION =                  
           STREAMFLOW =                               STREAMFLOW =                  
     GW BOUNDARY FLOW =                         GW BOUNDARY FLOW =                  
                WELLS =                                    WELLS =                  


                                    OUT                                        OUT
                                    ---                                        ---
   EVAPOTRANSPIRATION =        2.9072E+08     EVAPOTRANSPIRATION =          18169.25
           STREAMFLOW =        1.7558E+08             STREAMFLOW =           7837.96
     GW BOUNDARY FLOW =        3760809.25       GW BOUNDARY FLOW =            655.56
                WELLS =                                    WELLS =                  

   INFLOWS - OUTFLOWS =       -4954688.00     INFLOWS - OUTFLOWS =         -26662.77
             --------                                   --------

 TOTAL STORAGE CHANGE =       -4769977.50         STORAGE CHANGE =         -26668.69
       --------------                             --------------
         LAND SURFACE =             17.26           LAND SURFACE =                  
            SOIL ZONE =         167862.38              SOIL ZONE =          -2270.44
     UNSATURATED ZONE =        3570112.00       UNSATURATED ZONE =         -27203.81
       SATURATED ZONE =       -8507937.00         SATURATED ZONE =           2805.56

 OVERALL BUDGET ERROR =        -184710.50           BUDGET ERROR =              5.92


  PERCENT DISCREPANCY =             -0.04    PERCENT DISCREPANCY =              0.02



1
 SUMMARY VOLUMETRIC BUDGET FOR GSFLOW 
 DATE: 08 13 1996              CUMULATIVE TIME STEP:    5796
 MODFLOW STRESS PERIOD      2     CURRENT TIME STEP:    5796     ITERATIONS:      15

 -----------------------------------------------------------------------------------

   CUMULATIVE VOLUMES               L**3   RATES FOR THIS TIME STEP           L**3/T
   ------------------                      ------------------------

                                     IN                                         IN
                                     --                                         --
        PRECIPITATION =        4.6531E+08          PRECIPITATION =          54454.07
           STREAMFLOW =                               STREAMFLOW =                  
     GW BOUNDARY FLOW =                         GW BOUNDARY FLOW =                  
                WELLS =                                    WELLS =                  


                                    OUT                                        OUT
                                    ---                                        ---
   EVAPOTRANSPIRATION =        2.9089E+08     EVAPOTRANSPIRATION =          30740.90
           STREAMFLOW =        1.7564E+08             STREAMFLOW =           9013.46
     GW BOUNDARY FLOW =        3765396.75       GW BOUNDARY FLOW =            655.29
                WELLS =                                    WELLS =                  

   INFLOWS - OUTFLOWS =       -4985568.00     INFLOWS - OUTFLOWS =          14044.43
             --------                                   --------

 TOTAL STORAGE CHANGE =       -4800951.00         STORAGE CHANGE =          14024.36
       --------------                             --------------
         LAND SURFACE =          34522.33           LAND SURFACE =                  
            SOIL ZONE =         271443.41              SOIL ZONE =          37982.39
     UNSATURATED ZONE =        3382171.75       UNSATURATED ZONE =         -26659.20
       SATURATED ZONE =       -8489058.00         SATURATED ZONE =           2701.18

 OVERALL BUDGET ERROR =        -184617.00           BUDGET ERROR =             20.07


  PERCENT DISCREPANCY =             -0.04    PERCENT DISCREPANCY =              0.04



1
 SUMMARY VOLUMETRIC BUDGET FOR GSFLOW 
 DATE: 08 20 1996              CUMULATIVE TIME STEP:    5803
 MODFLOW STRESS PERIOD      2     CURRENT TIME STEP:    5803     ITERATIONS:      15

 -----------------------------------------------------------------------------------

   CUMULATIVE VOLUMES               L**3   RATES FOR THIS TIME STEP           L**3/T
   ------------------                      ------------------------

                                     IN                                         IN
                                     --                                         --
        PRECIPITATION =        4.6531E+08          PRECIPITATION =                  
           STREAMFLOW =                               STREAMFLOW =                  
     GW BOUNDARY FLOW =                         GW BOUNDARY FLOW =                  
                WELLS =                                    WELLS =                  


                                    OUT                                        OUT
                                    ---                                        ---
   EVAPOTRANSPIRATION =        2.9109E+08     EVAPOTRANSPIRATION =          18639.23
           STREAMFLOW =        1.7569E+08             STREAMFLOW =           7567.12
     GW BOUNDARY FLOW =        3769981.75       GW BOUNDARY FLOW =            654.76
                WELLS =                                    WELLS =                  

   INFLOWS - OUTFLOWS =       -5246048.00     INFLOWS - OUTFLOWS =         -26861.11
             --------                                   --------

 TOTAL STORAGE CHANGE =       -5061493.00         STORAGE CHANGE =         -26875.21
       --------------                             --------------
         LAND SURFACE =             17.26           LAND SURFACE =                  
            SOIL ZONE =         212119.22              SOIL ZONE =          -3211.20
     UNSATURATED ZONE =        3204682.25       UNSATURATED ZONE =         -24695.88
       SATURATED ZONE =       -8478281.00         SATURATED ZONE =           1031.87

 OVERALL BUDGET ERROR =        -184555.00           BUDGET ERROR =             14.10


  PERCENT DISCREPANCY =             -0.04    PERCENT DISCREPANCY =              0.05



1
 SUMMARY VOLUMETRIC BUDGET FOR GSFLOW 
 DATE: 08 27 1996              CUMULATIVE TIME STEP:    5810
 MODFLOW STRESS PERIOD      2     CURRENT TIME STEP:    5810     ITERATIONS:      25

 -----------------------------------------------------------------------------------

   CUMULATIVE VOLUMES               L**3   RATES FOR THIS TIME STEP           L**3/T
   ------------------                      ------------------------

                                     IN                                         IN
                                     --                                         --
        PRECIPITATION =        4.6531E+08          PRECIPITATION =                  
           STREAMFLOW =                               STREAMFLOW =                  
     GW BOUNDARY FLOW =                         GW BOUNDARY FLOW =                  
                WELLS =                                    WELLS =                  


                                    OUT                                        OUT
                                    ---                                        ---
   EVAPOTRANSPIRATION =        2.9124E+08     EVAPOTRANSPIRATION =          17302.04
           STREAMFLOW =        1.7575E+08             STREAMFLOW =           7331.58
     GW BOUNDARY FLOW =        3774563.25       GW BOUNDARY FLOW =            654.29
                WELLS =                                    WELLS =                  

   INFLOWS - OUTFLOWS =       -5451296.00     INFLOWS - OUTFLOWS =         -25287.91
             --------                                   --------

 TOTAL STORAGE CHANGE =       -5266744.50         STORAGE CHANGE =         -25279.44
       --------------                             --------------
         LAND SURFACE =             17.26           LAND SURFACE =                  
            SOIL ZONE =         170963.47              SOIL ZONE =          -1989.83
     UNSATURATED ZONE =        3033658.25       UNSATURATED ZONE =         -23899.14
       SATURATED ZONE =       -8471351.00         SATURATED ZONE =            609.53

 OVERALL BUDGET ERROR =        -184551.50           BUDGET ERROR =             -8.47


  PERCENT DISCREPANCY =             -0.04    PERCENT DISCREPANCY =             -0.03



1
 SUMMARY VOLUMETRIC BUDGET FOR GSFLOW 
 DATE: 09 03 1996              CUMULATIVE TIME STEP:    5817
 MODFLOW STRESS PERIOD      2     CURRENT TIME STEP:    5817     ITERATIONS:      20

 -----------------------------------------------------------------------------------

   CUMULATIVE VOLUMES               L**3   RATES FOR THIS TIME STEP           L**3/T
   ------------------                      ------------------------

                                     IN                                         IN
                                     --                                         --
        PRECIPITATION =        4.6531E+08          PRECIPITATION =                  
           STREAMFLOW =                               STREAMFLOW =                  
     GW BOUNDARY FLOW =                         GW BOUNDARY FLOW =                  
                WELLS =                                    WELLS =                  


                                    OUT                                        OUT
                                    ---                                        ---
   EVAPOTRANSPIRATION =        2.9136E+08     EVAPOTRANSPIRATION =          14394.53
           STREAMFLOW =        1.7580E+08             STREAMFLOW =           7187.98
     GW BOUNDARY FLOW =        3779141.50       GW BOUNDARY FLOW =            653.82
                WELLS =                                    WELLS =                  

   INFLOWS - OUTFLOWS =       -5627040.00     INFLOWS - OUTFLOWS =         -22236.34
             --------                                   --------

 TOTAL STORAGE CHANGE =       -5442405.50         STORAGE CHANGE =         -22232.67
       --------------                             --------------
         LAND SURFACE =             17.26           LAND SURFACE =                  
            SOIL ZONE =         157067.86              SOIL ZONE =            745.60
     UNSATURATED ZONE =        2870866.25       UNSATURATED ZONE =         -22801.52
       SATURATED ZONE =       -8470326.00         SATURATED ZONE =           -176.75

 OVERALL BUDGET ERROR =        -184634.50           BUDGET ERROR =             -3.67


  PERCENT DISCREPANCY =             -0.04    PERCENT DISCREPANCY =             -0.02



1
 SUMMARY VOLUMETRIC BUDGET FOR GSFLOW 
 DATE: 09 10 1996              CUMULATIVE TIME STEP:    5824
 MODFLOW STRESS PERIOD      2     CURRENT TIME STEP:    5824     ITERATIONS:      15

 -----------------------------------------------------------------------------------

   CUMULATIVE VOLUMES               L**3   RATES FOR THIS TIME STEP           L**3/T
   ------------------                      ------------------------

                                     IN                                         IN
                                     --                                         --
        PRECIPITATION =        4.6531E+08          PRECIPITATION =                  
           STREAMFLOW =                               STREAMFLOW =                  
     GW BOUNDARY FLOW =                         GW BOUNDARY FLOW =                  
                WELLS =                                    WELLS =                  


                                    OUT                                        OUT
                                    ---                                        ---
   EVAPOTRANSPIRATION =        2.9146E+08     EVAPOTRANSPIRATION =          15222.62
           STREAMFLOW =        1.7585E+08             STREAMFLOW =           7063.05
     GW BOUNDARY FLOW =        3783716.50       GW BOUNDARY FLOW =            653.36
                WELLS =                                    WELLS =                  

   INFLOWS - OUTFLOWS =       -5779104.00     INFLOWS - OUTFLOWS =         -22939.03
             --------                                   --------

 TOTAL STORAGE CHANGE =       -5594457.50         STORAGE CHANGE =         -22949.26
       --------------                             --------------
         LAND SURFACE =             17.26           LAND SURFACE =                  
            SOIL ZONE =         164709.89              SOIL ZONE =           -249.28
     UNSATURATED ZONE =        2715195.75       UNSATURATED ZONE =         -21964.01
       SATURATED ZONE =       -8474349.00         SATURATED ZONE =           -735.96

 OVERALL BUDGET ERROR =        -184646.50           BUDGET ERROR =             10.23


  PERCENT DISCREPANCY =             -0.04    PERCENT DISCREPANCY =              0.04



1
 SUMMARY VOLUMETRIC BUDGET FOR GSFLOW 
 DATE: 09 17 1996              CUMULATIVE TIME STEP:    5831
 MODFLOW STRESS PERIOD      2     CURRENT TIME STEP:    5831     ITERATIONS:      23

 -----------------------------------------------------------------------------------

   CUMULATIVE VOLUMES               L**3   RATES FOR THIS TIME STEP           L**3/T
   ------------------                      ------------------------

                                     IN                                         IN
                                     --                                         --
        PRECIPITATION =        4.6637E+08          PRECIPITATION =                  
           STREAMFLOW =                               STREAMFLOW =                  
     GW BOUNDARY FLOW =                         GW BOUNDARY FLOW =                  
                WELLS =                                    WELLS =                  


                                    OUT                                        OUT
                                    ---                                        ---
   EVAPOTRANSPIRATION =        2.9166E+08     EVAPOTRANSPIRATION =          67792.45
           STREAMFLOW =        1.7592E+08             STREAMFLOW =          13580.95
     GW BOUNDARY FLOW =        3788289.75       GW BOUNDARY FLOW =            653.61
                WELLS =                                    WELLS =                  

   INFLOWS - OUTFLOWS =       -4995168.00     INFLOWS - OUTFLOWS =         -82027.00
             --------                                   --------

 TOTAL STORAGE CHANGE =       -4810501.00         STORAGE CHANGE =         -82029.27
       --------------                             --------------
         LAND SURFACE =             17.26           LAND SURFACE =         -34505.07
            SOIL ZONE =        1105462.88              SOIL ZONE =         -25219.09
     UNSATURATED ZONE =        2566070.25       UNSATURATED ZONE =         -20831.41
       SATURATED ZONE =       -8482019.00         SATURATED ZONE =          -1473.69

 OVERALL BUDGET ERROR =        -184667.00           BUDGET ERROR =              2.27


  PERCENT DISCREPANCY =             -0.04    PERCENT DISCREPANCY =              0.00



1
 SUMMARY VOLUMETRIC BUDGET FOR GSFLOW 
 DATE: 09 24 1996              CUMULATIVE TIME STEP:    5838
 MODFLOW STRESS PERIOD      2     CURRENT TIME STEP:    5838     ITERATIONS:      19

 -----------------------------------------------------------------------------------

   CUMULATIVE VOLUMES               L**3   RATES FOR THIS TIME STEP           L**3/T
   ------------------                      ------------------------

                                     IN                                         IN
                                     --                                         --
        PRECIPITATION =        4.6637E+08          PRECIPITATION =                  
           STREAMFLOW =                               STREAMFLOW =                  
     GW BOUNDARY FLOW =                         GW BOUNDARY FLOW =                  
                WELLS =                                    WELLS =                  


                                    OUT                                        OUT
                                    ---                                        ---
   EVAPOTRANSPIRATION =        2.9217E+08     EVAPOTRANSPIRATION =          56818.68
           STREAMFLOW =        1.7598E+08             STREAMFLOW =           7813.96
     GW BOUNDARY FLOW =        3792861.25       GW BOUNDARY FLOW =            652.74
                WELLS =                                    WELLS =                  

   INFLOWS - OUTFLOWS =       -5581696.00     INFLOWS - OUTFLOWS =         -65285.38
             --------                                   --------

 TOTAL STORAGE CHANGE =       -5396994.50         STORAGE CHANGE =         -65274.87
       --------------                             --------------
         LAND SURFACE =             17.26           LAND SURFACE =                  
            SOIL ZONE =         675238.25              SOIL ZONE =         -43099.17
     UNSATURATED ZONE =        2423668.75       UNSATURATED ZONE =         -19910.83
       SATURATED ZONE =       -8495886.00         SATURATED ZONE =          -2264.87

 OVERALL BUDGET ERROR =        -184701.50           BUDGET ERROR =            -10.52


  PERCENT DISCREPANCY =             -0.04    PERCENT DISCREPANCY =             -0.02



