1
 SUMMARY VOLUMETRIC BUDGET FOR GSFLOW 
 DATE: 10 07 1980              CUMULATIVE TIME STEP:       7
 MODFLOW STRESS PERIOD      2     CURRENT TIME STEP:       7     ITERATIONS:       6

 -----------------------------------------------------------------------------------

   CUMULATIVE VOLUMES               L**3   RATES FOR THIS TIME STEP           L**3/T
   ------------------                      ------------------------

                                     IN                                         IN
                                     --                                         --
        PRECIPITATION =                            PRECIPITATION =                  
           STREAMFLOW =                               STREAMFLOW =                  
     GW BOUNDARY FLOW =                         GW BOUNDARY FLOW =                  
                WELLS =                                    WELLS =                  


                                    OUT                                        OUT
                                    ---                                        ---
   EVAPOTRANSPIRATION =          66590.84     EVAPOTRANSPIRATION =           9274.90
           STREAMFLOW =          42965.14             STREAMFLOW =           6069.77
     GW BOUNDARY FLOW =           4541.44       GW BOUNDARY FLOW =            648.70
                WELLS =                                    WELLS =                  

   INFLOWS - OUTFLOWS =        -114097.41     INFLOWS - OUTFLOWS =         -15993.37
             --------                                   --------

 TOTAL STORAGE CHANGE =        -113576.30         STORAGE CHANGE =         -15914.26
       --------------                             --------------
         LAND SURFACE =                             LAND SURFACE =                  
            SOIL ZONE =          43916.43              SOIL ZONE =           6420.63
     UNSATURATED ZONE =        -144847.59       UNSATURATED ZONE =         -20370.64
       SATURATED ZONE =         -12645.14         SATURATED ZONE =          -1964.25

 OVERALL BUDGET ERROR =           -521.11           BUDGET ERROR =            -79.10


  PERCENT DISCREPANCY =             -0.46    PERCENT DISCREPANCY =             -0.50



1
 SUMMARY VOLUMETRIC BUDGET FOR GSFLOW 
 DATE: 10 14 1980              CUMULATIVE TIME STEP:      14
 MODFLOW STRESS PERIOD      2     CURRENT TIME STEP:      14     ITERATIONS:       7

 -----------------------------------------------------------------------------------

   CUMULATIVE VOLUMES               L**3   RATES FOR THIS TIME STEP           L**3/T
   ------------------                      ------------------------

                                     IN                                         IN
                                     --                                         --
        PRECIPITATION =         650779.81          PRECIPITATION =         164754.39
           STREAMFLOW =                               STREAMFLOW =                  
     GW BOUNDARY FLOW =                         GW BOUNDARY FLOW =                  
                WELLS =                                    WELLS =                  


                                    OUT                                        OUT
                                    ---                                        ---
   EVAPOTRANSPIRATION =         162582.28     EVAPOTRANSPIRATION =          11440.08
           STREAMFLOW =          93075.18             STREAMFLOW =           8014.70
     GW BOUNDARY FLOW =           9082.81       GW BOUNDARY FLOW =            648.93
                WELLS =                                    WELLS =                  

   INFLOWS - OUTFLOWS =         386039.53     INFLOWS - OUTFLOWS =         144650.69
             --------                                   --------

 TOTAL STORAGE CHANGE =         387128.09         STORAGE CHANGE =         144730.22
       --------------                             --------------
         LAND SURFACE =         183651.30           LAND SURFACE =         130477.13
            SOIL ZONE =         515368.03              SOIL ZONE =          36202.30
     UNSATURATED ZONE =        -284592.13       UNSATURATED ZONE =         -19643.28
       SATURATED ZONE =         -27299.19         SATURATED ZONE =          -2305.93

 OVERALL BUDGET ERROR =          -1088.56           BUDGET ERROR =            -79.53


  PERCENT DISCREPANCY =             -0.17    PERCENT DISCREPANCY =             -0.05



1
 SUMMARY VOLUMETRIC BUDGET FOR GSFLOW 
 DATE: 10 21 1980              CUMULATIVE TIME STEP:      21
 MODFLOW STRESS PERIOD      2     CURRENT TIME STEP:      21     ITERATIONS:       6

 -----------------------------------------------------------------------------------

   CUMULATIVE VOLUMES               L**3   RATES FOR THIS TIME STEP           L**3/T
   ------------------                      ------------------------

                                     IN                                         IN
                                     --                                         --
        PRECIPITATION =         733157.00          PRECIPITATION =                  
           STREAMFLOW =                               STREAMFLOW =                  
     GW BOUNDARY FLOW =                         GW BOUNDARY FLOW =                  
                WELLS =                                    WELLS =                  


                                    OUT                                        OUT
                                    ---                                        ---
   EVAPOTRANSPIRATION =         432659.72     EVAPOTRANSPIRATION =          44096.84
           STREAMFLOW =         144355.20             STREAMFLOW =           6875.20
     GW BOUNDARY FLOW =          13624.55       GW BOUNDARY FLOW =            648.74
                WELLS =                                    WELLS =                  

   INFLOWS - OUTFLOWS =         142517.56     INFLOWS - OUTFLOWS =         -51620.77
             --------                                   --------

 TOTAL STORAGE CHANGE =         144202.17         STORAGE CHANGE =         -51529.52
       --------------                             --------------
         LAND SURFACE =             -0.02           LAND SURFACE =                  
            SOIL ZONE =         609110.69              SOIL ZONE =         -29702.00
     UNSATURATED ZONE =        -418867.28       UNSATURATED ZONE =         -18839.07
       SATURATED ZONE =         -46041.32         SATURATED ZONE =          -2988.45

 OVERALL BUDGET ERROR =          -1684.61           BUDGET ERROR =            -91.25


  PERCENT DISCREPANCY =             -0.23    PERCENT DISCREPANCY =             -0.18



1
 SUMMARY VOLUMETRIC BUDGET FOR GSFLOW 
 DATE: 10 28 1980              CUMULATIVE TIME STEP:      28
 MODFLOW STRESS PERIOD      2     CURRENT TIME STEP:      28     ITERATIONS:       6

 -----------------------------------------------------------------------------------

   CUMULATIVE VOLUMES               L**3   RATES FOR THIS TIME STEP           L**3/T
   ------------------                      ------------------------

                                     IN                                         IN
                                     --                                         --
        PRECIPITATION =        1070903.50          PRECIPITATION =                  
           STREAMFLOW =                               STREAMFLOW =                  
     GW BOUNDARY FLOW =                         GW BOUNDARY FLOW =                  
                WELLS =                                    WELLS =                  


                                    OUT                                        OUT
                                    ---                                        ---
   EVAPOTRANSPIRATION =         623477.50     EVAPOTRANSPIRATION =          24687.24
           STREAMFLOW =         196452.42             STREAMFLOW =           7728.67
     GW BOUNDARY FLOW =          18165.50       GW BOUNDARY FLOW =            648.75
                WELLS =                                    WELLS =                  

   INFLOWS - OUTFLOWS =         232808.06     INFLOWS - OUTFLOWS =         -33064.66
             --------                                   --------

 TOTAL STORAGE CHANGE =         235136.39         STORAGE CHANGE =         -32969.46
       --------------                             --------------
         LAND SURFACE =          20524.21           LAND SURFACE =         -29854.70
            SOIL ZONE =         830897.06              SOIL ZONE =          18366.30
     UNSATURATED ZONE =        -547649.50       UNSATURATED ZONE =         -18034.00
       SATURATED ZONE =         -68635.42         SATURATED ZONE =          -3447.05

 OVERALL BUDGET ERROR =          -2328.33           BUDGET ERROR =            -95.20


  PERCENT DISCREPANCY =             -0.22    PERCENT DISCREPANCY =             -0.29



1
 SUMMARY VOLUMETRIC BUDGET FOR GSFLOW 
 DATE: 11 04 1980              CUMULATIVE TIME STEP:      35
 MODFLOW STRESS PERIOD      2     CURRENT TIME STEP:      35     ITERATIONS:       8

 -----------------------------------------------------------------------------------

   CUMULATIVE VOLUMES               L**3   RATES FOR THIS TIME STEP           L**3/T
   ------------------                      ------------------------

                                     IN                                         IN
                                     --                                         --
        PRECIPITATION =        1070903.50          PRECIPITATION =                  
           STREAMFLOW =                               STREAMFLOW =                  
     GW BOUNDARY FLOW =                         GW BOUNDARY FLOW =                  
                WELLS =                                    WELLS =                  


                                    OUT                                        OUT
                                    ---                                        ---
   EVAPOTRANSPIRATION =         961831.19     EVAPOTRANSPIRATION =          43339.44
           STREAMFLOW =         247160.38             STREAMFLOW =           6820.64
     GW BOUNDARY FLOW =          22706.22       GW BOUNDARY FLOW =            648.61
                WELLS =                                    WELLS =                  

   INFLOWS - OUTFLOWS =        -160794.25     INFLOWS - OUTFLOWS =         -50808.69
             --------                                   --------

 TOTAL STORAGE CHANGE =        -157823.03         STORAGE CHANGE =         -50729.67
       --------------                             --------------
         LAND SURFACE =             -0.02           LAND SURFACE =                  
            SOIL ZONE =         609213.88              SOIL ZONE =         -29197.46
     UNSATURATED ZONE =        -671247.00       UNSATURATED ZONE =         -17370.69
       SATURATED ZONE =         -95789.91         SATURATED ZONE =          -4161.52

 OVERALL BUDGET ERROR =          -2971.22           BUDGET ERROR =            -79.02


  PERCENT DISCREPANCY =             -0.24    PERCENT DISCREPANCY =             -0.16



1
 SUMMARY VOLUMETRIC BUDGET FOR GSFLOW 
 DATE: 11 11 1980              CUMULATIVE TIME STEP:      42
 MODFLOW STRESS PERIOD      2     CURRENT TIME STEP:      42     ITERATIONS:       7

 -----------------------------------------------------------------------------------

   CUMULATIVE VOLUMES               L**3   RATES FOR THIS TIME STEP           L**3/T
   ------------------                      ------------------------

                                     IN                                         IN
                                     --                                         --
        PRECIPITATION =        1573762.63          PRECIPITATION =         255182.20
           STREAMFLOW =                               STREAMFLOW =                  
     GW BOUNDARY FLOW =                         GW BOUNDARY FLOW =                  
                WELLS =                                    WELLS =                  


                                    OUT                                        OUT
                                    ---                                        ---
   EVAPOTRANSPIRATION =        1193910.38     EVAPOTRANSPIRATION =          17022.81
           STREAMFLOW =         300136.63             STREAMFLOW =           9325.17
     GW BOUNDARY FLOW =          27246.62       GW BOUNDARY FLOW =            648.75
                WELLS =                                    WELLS =                  

   INFLOWS - OUTFLOWS =          52469.00     INFLOWS - OUTFLOWS =         228185.47
             --------                                   --------

 TOTAL STORAGE CHANGE =          56152.19         STORAGE CHANGE =         228268.63
       --------------                             --------------
         LAND SURFACE =          76836.68           LAND SURFACE =          76836.70
            SOIL ZONE =         895120.31              SOIL ZONE =         172301.19
     UNSATURATED ZONE =        -789921.44       UNSATURATED ZONE =         -16571.01
       SATURATED ZONE =        -125883.35         SATURATED ZONE =          -4298.23

 OVERALL BUDGET ERROR =          -3683.19           BUDGET ERROR =            -83.16


  PERCENT DISCREPANCY =             -0.23    PERCENT DISCREPANCY =             -0.03



1
 SUMMARY VOLUMETRIC BUDGET FOR GSFLOW 
 DATE: 11 18 1980              CUMULATIVE TIME STEP:      49
 MODFLOW STRESS PERIOD      2     CURRENT TIME STEP:      49     ITERATIONS:       6

 -----------------------------------------------------------------------------------

   CUMULATIVE VOLUMES               L**3   RATES FOR THIS TIME STEP           L**3/T
   ------------------                      ------------------------

                                     IN                                         IN
                                     --                                         --
        PRECIPITATION =        1573762.63          PRECIPITATION =                  
           STREAMFLOW =                               STREAMFLOW =                  
     GW BOUNDARY FLOW =                         GW BOUNDARY FLOW =                  
                WELLS =                                    WELLS =                  


                                    OUT                                        OUT
                                    ---                                        ---
   EVAPOTRANSPIRATION =        1290937.00     EVAPOTRANSPIRATION =          23216.36
           STREAMFLOW =         360401.94             STREAMFLOW =           8828.35
     GW BOUNDARY FLOW =          31788.08       GW BOUNDARY FLOW =            648.79
                WELLS =                                    WELLS =                  

   INFLOWS - OUTFLOWS =        -109364.38     INFLOWS - OUTFLOWS =         -32693.50
             --------                                   --------

 TOTAL STORAGE CHANGE =        -104918.47         STORAGE CHANGE =         -32575.89
       --------------                             --------------
         LAND SURFACE =           5214.83           LAND SURFACE =          -7686.44
            SOIL ZONE =         952330.50              SOIL ZONE =          -4066.20
     UNSATURATED ZONE =        -903928.25       UNSATURATED ZONE =         -16031.79
       SATURATED ZONE =        -158535.52         SATURATED ZONE =          -4791.46

 OVERALL BUDGET ERROR =          -4445.91           BUDGET ERROR =           -117.61


  PERCENT DISCREPANCY =             -0.26    PERCENT DISCREPANCY =             -0.36



1
 SUMMARY VOLUMETRIC BUDGET FOR GSFLOW 
 DATE: 11 25 1980              CUMULATIVE TIME STEP:      56
 MODFLOW STRESS PERIOD      2     CURRENT TIME STEP:      56     ITERATIONS:       7

 -----------------------------------------------------------------------------------

   CUMULATIVE VOLUMES               L**3   RATES FOR THIS TIME STEP           L**3/T
   ------------------                      ------------------------

                                     IN                                         IN
                                     --                                         --
        PRECIPITATION =        1648816.25          PRECIPITATION =                  
           STREAMFLOW =                               STREAMFLOW =                  
     GW BOUNDARY FLOW =                         GW BOUNDARY FLOW =                  
                WELLS =                                    WELLS =                  


                                    OUT                                        OUT
                                    ---                                        ---
   EVAPOTRANSPIRATION =        1380203.75     EVAPOTRANSPIRATION =           9277.87
           STREAMFLOW =         423029.03             STREAMFLOW =           9057.39
     GW BOUNDARY FLOW =          36329.74       GW BOUNDARY FLOW =            648.82
                WELLS =                                    WELLS =                  

   INFLOWS - OUTFLOWS =        -190746.25     INFLOWS - OUTFLOWS =         -18984.08
             --------                                   --------

 TOTAL STORAGE CHANGE =        -185501.97         STORAGE CHANGE =         -18880.13
       --------------                             --------------
         LAND SURFACE =          53014.06           LAND SURFACE =          -9258.01
            SOIL ZONE =         969828.13              SOIL ZONE =          11200.00
     UNSATURATED ZONE =       -1013693.63       UNSATURATED ZONE =         -15416.54
       SATURATED ZONE =        -194650.56         SATURATED ZONE =          -5405.58

 OVERALL BUDGET ERROR =          -5244.28           BUDGET ERROR =           -103.95


  PERCENT DISCREPANCY =             -0.29    PERCENT DISCREPANCY =             -0.55



1
 SUMMARY VOLUMETRIC BUDGET FOR GSFLOW 
 DATE: 12 02 1980              CUMULATIVE TIME STEP:      63
 MODFLOW STRESS PERIOD      2     CURRENT TIME STEP:      63     ITERATIONS:       7

 -----------------------------------------------------------------------------------

   CUMULATIVE VOLUMES               L**3   RATES FOR THIS TIME STEP           L**3/T
   ------------------                      ------------------------

                                     IN                                         IN
                                     --                                         --
        PRECIPITATION =        2076621.63          PRECIPITATION =                  
           STREAMFLOW =                               STREAMFLOW =                  
     GW BOUNDARY FLOW =                         GW BOUNDARY FLOW =                  
                WELLS =                                    WELLS =                  


                                    OUT                                        OUT
                                    ---                                        ---
   EVAPOTRANSPIRATION =        1590165.75     EVAPOTRANSPIRATION =          35187.37
           STREAMFLOW =         494314.22             STREAMFLOW =          12087.65
     GW BOUNDARY FLOW =          40872.18       GW BOUNDARY FLOW =            649.10
                WELLS =                                    WELLS =                  

   INFLOWS - OUTFLOWS =         -48730.63     INFLOWS - OUTFLOWS =         -47924.12
             --------                                   --------

 TOTAL STORAGE CHANGE =         -42740.78         STORAGE CHANGE =         -47832.36
       --------------                             --------------
         LAND SURFACE =         139391.38           LAND SURFACE =         -82011.34
            SOIL ZONE =        1167287.88              SOIL ZONE =          52849.92
     UNSATURATED ZONE =       -1116960.63       UNSATURATED ZONE =         -13644.07
       SATURATED ZONE =        -232459.41         SATURATED ZONE =          -5026.87

 OVERALL BUDGET ERROR =          -5989.85           BUDGET ERROR =            -91.76


  PERCENT DISCREPANCY =             -0.28    PERCENT DISCREPANCY =             -0.19



1
 SUMMARY VOLUMETRIC BUDGET FOR GSFLOW 
 DATE: 12 09 1980              CUMULATIVE TIME STEP:      70
 MODFLOW STRESS PERIOD      2     CURRENT TIME STEP:      70     ITERATIONS:       7

 -----------------------------------------------------------------------------------

   CUMULATIVE VOLUMES               L**3   RATES FOR THIS TIME STEP           L**3/T
   ------------------                      ------------------------

                                     IN                                         IN
                                     --                                         --
        PRECIPITATION =        4284363.50          PRECIPITATION =                  
           STREAMFLOW =                               STREAMFLOW =                  
     GW BOUNDARY FLOW =                         GW BOUNDARY FLOW =                  
                WELLS =                                    WELLS =                  


                                    OUT                                        OUT
                                    ---                                        ---
   EVAPOTRANSPIRATION =        1616727.75     EVAPOTRANSPIRATION =           4181.54
           STREAMFLOW =         578393.50             STREAMFLOW =          12418.90
     GW BOUNDARY FLOW =          45416.86       GW BOUNDARY FLOW =            649.35
                WELLS =                                    WELLS =                  

   INFLOWS - OUTFLOWS =        2043825.50     INFLOWS - OUTFLOWS =         -17249.78
             --------                                   --------

 TOTAL STORAGE CHANGE =        2050465.63         STORAGE CHANGE =         -17152.98
       --------------                             --------------
         LAND SURFACE =        2318906.75           LAND SURFACE =          -4181.49
            SOIL ZONE =        1219610.50              SOIL ZONE =           7154.49
     UNSATURATED ZONE =       -1216231.75       UNSATURATED ZONE =         -14243.38
       SATURATED ZONE =        -271819.81         SATURATED ZONE =          -5882.60

 OVERALL BUDGET ERROR =          -6640.13           BUDGET ERROR =            -96.80


  PERCENT DISCREPANCY =             -0.15    PERCENT DISCREPANCY =             -0.56



1
 SUMMARY VOLUMETRIC BUDGET FOR GSFLOW 
 DATE: 12 16 1980              CUMULATIVE TIME STEP:      77
 MODFLOW STRESS PERIOD      2     CURRENT TIME STEP:      77     ITERATIONS:       7

 -----------------------------------------------------------------------------------

   CUMULATIVE VOLUMES               L**3   RATES FOR THIS TIME STEP           L**3/T
   ------------------                      ------------------------

                                     IN                                         IN
                                     --                                         --
        PRECIPITATION =        4284363.50          PRECIPITATION =                  
           STREAMFLOW =                               STREAMFLOW =                  
     GW BOUNDARY FLOW =                         GW BOUNDARY FLOW =                  
                WELLS =                                    WELLS =                  


                                    OUT                                        OUT
                                    ---                                        ---
   EVAPOTRANSPIRATION =        1767787.88     EVAPOTRANSPIRATION =          35004.29
           STREAMFLOW =         678216.56             STREAMFLOW =          18892.37
     GW BOUNDARY FLOW =          49963.28       GW BOUNDARY FLOW =            649.78
                WELLS =                                    WELLS =                  

   INFLOWS - OUTFLOWS =        1788395.75     INFLOWS - OUTFLOWS =         -54546.43
             --------                                   --------

 TOTAL STORAGE CHANGE =        1795653.63         STORAGE CHANGE =         -54457.89
       --------------                             --------------
         LAND SURFACE =        1972628.00           LAND SURFACE =        -141505.97
            SOIL ZONE =        1442207.13              SOIL ZONE =         101116.09
     UNSATURATED ZONE =       -1307086.50       UNSATURATED ZONE =          -9530.14
       SATURATED ZONE =        -312094.78         SATURATED ZONE =          -4537.86

 OVERALL BUDGET ERROR =          -7257.88           BUDGET ERROR =            -88.54


  PERCENT DISCREPANCY =             -0.17    PERCENT DISCREPANCY =             -0.16



1
 SUMMARY VOLUMETRIC BUDGET FOR GSFLOW 
 DATE: 12 23 1980              CUMULATIVE TIME STEP:      84
 MODFLOW STRESS PERIOD      2     CURRENT TIME STEP:      84     ITERATIONS:      10

 -----------------------------------------------------------------------------------

   CUMULATIVE VOLUMES               L**3   RATES FOR THIS TIME STEP           L**3/T
   ------------------                      ------------------------

                                     IN                                         IN
                                     --                                         --
        PRECIPITATION =        4516757.50          PRECIPITATION =                  
           STREAMFLOW =                               STREAMFLOW =                  
     GW BOUNDARY FLOW =                         GW BOUNDARY FLOW =                  
                WELLS =                                    WELLS =                  


                                    OUT                                        OUT
                                    ---                                        ---
   EVAPOTRANSPIRATION =        1970888.25     EVAPOTRANSPIRATION =          34824.69
           STREAMFLOW =         881204.69             STREAMFLOW =          33070.12
     GW BOUNDARY FLOW =          54521.02       GW BOUNDARY FLOW =            651.80
                WELLS =                                    WELLS =                  

   INFLOWS - OUTFLOWS =        1610143.50     INFLOWS - OUTFLOWS =         -68546.61
             --------                                   --------

 TOTAL STORAGE CHANGE =        1617854.00         STORAGE CHANGE =         -68494.26
       --------------                             --------------
         LAND SURFACE =        1306360.88           LAND SURFACE =         -55143.64
            SOIL ZONE =        2000197.50              SOIL ZONE =          -3578.70
     UNSATURATED ZONE =       -1350357.63       UNSATURATED ZONE =          -5928.12
       SATURATED ZONE =        -338346.50         SATURATED ZONE =          -3843.79

 OVERALL BUDGET ERROR =          -7710.50           BUDGET ERROR =            -52.35


  PERCENT DISCREPANCY =             -0.17    PERCENT DISCREPANCY =             -0.08



1
 SUMMARY VOLUMETRIC BUDGET FOR GSFLOW 
 DATE: 12 30 1980              CUMULATIVE TIME STEP:      91
 MODFLOW STRESS PERIOD      2     CURRENT TIME STEP:      91     ITERATIONS:      11

 -----------------------------------------------------------------------------------

   CUMULATIVE VOLUMES               L**3   RATES FOR THIS TIME STEP           L**3/T
   ------------------                      ------------------------

                                     IN                                         IN
                                     --                                         --
        PRECIPITATION =        4516757.50          PRECIPITATION =                  
           STREAMFLOW =                               STREAMFLOW =                  
     GW BOUNDARY FLOW =                         GW BOUNDARY FLOW =                  
                WELLS =                                    WELLS =                  


                                    OUT                                        OUT
                                    ---                                        ---
   EVAPOTRANSPIRATION =        2295304.50     EVAPOTRANSPIRATION =          42905.50
           STREAMFLOW =        1118963.75             STREAMFLOW =          29376.47
     GW BOUNDARY FLOW =          59087.20       GW BOUNDARY FLOW =            652.54
                WELLS =                                    WELLS =                  

   INFLOWS - OUTFLOWS =        1043402.00     INFLOWS - OUTFLOWS =         -72934.52
             --------                                   --------

 TOTAL STORAGE CHANGE =        1051456.25         STORAGE CHANGE =         -72886.08
       --------------                             --------------
         LAND SURFACE =         517601.41           LAND SURFACE =         -41051.34
            SOIL ZONE =        2257224.50              SOIL ZONE =         -24318.03
     UNSATURATED ZONE =       -1361611.13       UNSATURATED ZONE =          -3702.27
       SATURATED ZONE =        -361758.09         SATURATED ZONE =          -3814.43

 OVERALL BUDGET ERROR =          -8054.25           BUDGET ERROR =            -48.44


  PERCENT DISCREPANCY =             -0.18    PERCENT DISCREPANCY =             -0.07



1
 SUMMARY VOLUMETRIC BUDGET FOR GSFLOW 
 DATE: 01 06 1981              CUMULATIVE TIME STEP:      98
 MODFLOW STRESS PERIOD      2     CURRENT TIME STEP:      98     ITERATIONS:       8

 -----------------------------------------------------------------------------------

   CUMULATIVE VOLUMES               L**3   RATES FOR THIS TIME STEP           L**3/T
   ------------------                      ------------------------

                                     IN                                         IN
                                     --                                         --
        PRECIPITATION =        5004445.50          PRECIPITATION =                  
           STREAMFLOW =                               STREAMFLOW =                  
     GW BOUNDARY FLOW =                         GW BOUNDARY FLOW =                  
                WELLS =                                    WELLS =                  


                                    OUT                                        OUT
                                    ---                                        ---
   EVAPOTRANSPIRATION =        2508418.75     EVAPOTRANSPIRATION =          21275.63
           STREAMFLOW =        1274996.50             STREAMFLOW =          20793.96
     GW BOUNDARY FLOW =          63649.32       GW BOUNDARY FLOW =            651.18
                WELLS =                                    WELLS =                  

   INFLOWS - OUTFLOWS =        1157381.00     INFLOWS - OUTFLOWS =         -42720.77
             --------                                   --------

 TOTAL STORAGE CHANGE =        1165784.00         STORAGE CHANGE =         -42662.80
       --------------                             --------------
         LAND SURFACE =         770051.19           LAND SURFACE =         -29101.57
            SOIL ZONE =        2221804.75              SOIL ZONE =           3246.52
     UNSATURATED ZONE =       -1427806.00       UNSATURATED ZONE =         -11146.83
       SATURATED ZONE =        -398265.84         SATURATED ZONE =          -5660.93

 OVERALL BUDGET ERROR =          -8403.00           BUDGET ERROR =            -57.97


  PERCENT DISCREPANCY =             -0.17    PERCENT DISCREPANCY =             -0.14



1
 SUMMARY VOLUMETRIC BUDGET FOR GSFLOW 
 DATE: 01 13 1981              CUMULATIVE TIME STEP:     105
 MODFLOW STRESS PERIOD      2     CURRENT TIME STEP:     105     ITERATIONS:       8

 -----------------------------------------------------------------------------------

   CUMULATIVE VOLUMES               L**3   RATES FOR THIS TIME STEP           L**3/T
   ------------------                      ------------------------

                                     IN                                         IN
                                     --                                         --
        PRECIPITATION =        5004445.50          PRECIPITATION =                  
           STREAMFLOW =                               STREAMFLOW =                  
     GW BOUNDARY FLOW =                         GW BOUNDARY FLOW =                  
                WELLS =                                    WELLS =                  


                                    OUT                                        OUT
                                    ---                                        ---
   EVAPOTRANSPIRATION =        2715595.50     EVAPOTRANSPIRATION =          42977.30
           STREAMFLOW =        1427284.00             STREAMFLOW =          21084.82
     GW BOUNDARY FLOW =          68206.51       GW BOUNDARY FLOW =            650.94
                WELLS =                                    WELLS =                  

   INFLOWS - OUTFLOWS =         793359.50     INFLOWS - OUTFLOWS =         -64713.05
             --------                                   --------

 TOTAL STORAGE CHANGE =         802221.44         STORAGE CHANGE =         -64653.62
       --------------                             --------------
         LAND SURFACE =         506161.22           LAND SURFACE =         -40670.09
            SOIL ZONE =        2219334.75              SOIL ZONE =         -11228.71
     UNSATURATED ZONE =       -1484147.63       UNSATURATED ZONE =          -6677.53
       SATURATED ZONE =        -439126.59         SATURATED ZONE =          -6077.29

 OVERALL BUDGET ERROR =          -8861.94           BUDGET ERROR =            -59.43


  PERCENT DISCREPANCY =             -0.18    PERCENT DISCREPANCY =             -0.09



1
 SUMMARY VOLUMETRIC BUDGET FOR GSFLOW 
 DATE: 01 20 1981              CUMULATIVE TIME STEP:     112
 MODFLOW STRESS PERIOD      2     CURRENT TIME STEP:     112     ITERATIONS:       8

 -----------------------------------------------------------------------------------

   CUMULATIVE VOLUMES               L**3   RATES FOR THIS TIME STEP           L**3/T
   ------------------                      ------------------------

                                     IN                                         IN
                                     --                                         --
        PRECIPITATION =        5170467.00          PRECIPITATION =          41505.35
           STREAMFLOW =                               STREAMFLOW =                  
     GW BOUNDARY FLOW =                         GW BOUNDARY FLOW =                  
                WELLS =                                    WELLS =                  


                                    OUT                                        OUT
                                    ---                                        ---
   EVAPOTRANSPIRATION =        3013681.00     EVAPOTRANSPIRATION =          54627.04
           STREAMFLOW =        1565415.38             STREAMFLOW =          19230.14
     GW BOUNDARY FLOW =          72761.16       GW BOUNDARY FLOW =            650.53
                WELLS =                                    WELLS =                  

   INFLOWS - OUTFLOWS =         518609.50     INFLOWS - OUTFLOWS =         -33002.36
             --------                                   --------

 TOTAL STORAGE CHANGE =         527947.81         STORAGE CHANGE =         -32939.02
       --------------                             --------------
         LAND SURFACE =         357515.44           LAND SURFACE =           4762.89
            SOIL ZONE =        2171943.75              SOIL ZONE =         -28261.67
     UNSATURATED ZONE =       -1517688.50       UNSATURATED ZONE =          -2744.26
       SATURATED ZONE =        -483822.88         SATURATED ZONE =          -6695.98

 OVERALL BUDGET ERROR =          -9338.31           BUDGET ERROR =            -63.34


  PERCENT DISCREPANCY =             -0.18    PERCENT DISCREPANCY =             -0.09



1
 SUMMARY VOLUMETRIC BUDGET FOR GSFLOW 
 DATE: 01 27 1981              CUMULATIVE TIME STEP:     119
 MODFLOW STRESS PERIOD      2     CURRENT TIME STEP:     119     ITERATIONS:       8

 -----------------------------------------------------------------------------------

   CUMULATIVE VOLUMES               L**3   RATES FOR THIS TIME STEP           L**3/T
   ------------------                      ------------------------

                                     IN                                         IN
                                     --                                         --
        PRECIPITATION =        8646540.00          PRECIPITATION =        2936503.75
           STREAMFLOW =                               STREAMFLOW =                  
     GW BOUNDARY FLOW =                         GW BOUNDARY FLOW =                  
                WELLS =                                    WELLS =                  


                                    OUT                                        OUT
                                    ---                                        ---
   EVAPOTRANSPIRATION =        3245429.75     EVAPOTRANSPIRATION =          12594.32
           STREAMFLOW =        1694594.88             STREAMFLOW =          17868.74
     GW BOUNDARY FLOW =          77313.73       GW BOUNDARY FLOW =            650.28
                WELLS =                                    WELLS =                  

   INFLOWS - OUTFLOWS =        3629201.50     INFLOWS - OUTFLOWS =        2905390.50
             --------                                   --------

 TOTAL STORAGE CHANGE =        3638945.75         STORAGE CHANGE =        2905458.50
       --------------                             --------------
         LAND SURFACE =        3508554.25           LAND SURFACE =        2923909.50
            SOIL ZONE =        2188511.75              SOIL ZONE =          -4776.45
     UNSATURATED ZONE =       -1528130.38       UNSATURATED ZONE =          -6627.74
       SATURATED ZONE =        -529989.81         SATURATED ZONE =          -7046.76

 OVERALL BUDGET ERROR =          -9744.25           BUDGET ERROR =            -68.00


  PERCENT DISCREPANCY =             -0.11    PERCENT DISCREPANCY =             -0.00



1
 SUMMARY VOLUMETRIC BUDGET FOR GSFLOW 
 DATE: 02 03 1981              CUMULATIVE TIME STEP:     126
 MODFLOW STRESS PERIOD      2     CURRENT TIME STEP:     126     ITERATIONS:       8

 -----------------------------------------------------------------------------------

   CUMULATIVE VOLUMES               L**3   RATES FOR THIS TIME STEP           L**3/T
   ------------------                      ------------------------

                                     IN                                         IN
                                     --                                         --
        PRECIPITATION =        1.1739E+07          PRECIPITATION =                  
           STREAMFLOW =                               STREAMFLOW =                  
     GW BOUNDARY FLOW =                         GW BOUNDARY FLOW =                  
                WELLS =                                    WELLS =                  


                                    OUT                                        OUT
                                    ---                                        ---
   EVAPOTRANSPIRATION =        3282773.25     EVAPOTRANSPIRATION =           8129.77
           STREAMFLOW =        1818475.63             STREAMFLOW =          17753.13
     GW BOUNDARY FLOW =          81865.23       GW BOUNDARY FLOW =            650.21
                WELLS =                                    WELLS =                  

   INFLOWS - OUTFLOWS =        6555575.00     INFLOWS - OUTFLOWS =         -26533.11
             --------                                   --------

 TOTAL STORAGE CHANGE =        6565818.50         STORAGE CHANGE =         -26460.66
       --------------                             --------------
         LAND SURFACE =        6563360.00           LAND SURFACE =          -8129.65
            SOIL ZONE =        2184371.25              SOIL ZONE =            797.23
     UNSATURATED ZONE =       -1599481.00       UNSATURATED ZONE =         -11316.90
       SATURATED ZONE =        -582431.63         SATURATED ZONE =          -7811.35

 OVERALL BUDGET ERROR =         -10243.50           BUDGET ERROR =            -72.45


  PERCENT DISCREPANCY =             -0.09    PERCENT DISCREPANCY =             -0.27



1
 SUMMARY VOLUMETRIC BUDGET FOR GSFLOW 
 DATE: 02 10 1981              CUMULATIVE TIME STEP:     133
 MODFLOW STRESS PERIOD      2     CURRENT TIME STEP:     133     ITERATIONS:       8

 -----------------------------------------------------------------------------------

   CUMULATIVE VOLUMES               L**3   RATES FOR THIS TIME STEP           L**3/T
   ------------------                      ------------------------

                                     IN                                         IN
                                     --                                         --
        PRECIPITATION =        1.1838E+07          PRECIPITATION =                  
           STREAMFLOW =                               STREAMFLOW =                  
     GW BOUNDARY FLOW =                         GW BOUNDARY FLOW =                  
                WELLS =                                    WELLS =                  


                                    OUT                                        OUT
                                    ---                                        ---
   EVAPOTRANSPIRATION =        3416574.00     EVAPOTRANSPIRATION =          34655.68
           STREAMFLOW =        1943584.13             STREAMFLOW =          17934.83
     GW BOUNDARY FLOW =          86416.76       GW BOUNDARY FLOW =            650.22
                WELLS =                                    WELLS =                  

   INFLOWS - OUTFLOWS =        6391679.00     INFLOWS - OUTFLOWS =         -53240.73
             --------                                   --------

 TOTAL STORAGE CHANGE =        6402426.50         STORAGE CHANGE =         -53166.26
       --------------                             --------------
         LAND SURFACE =        6529122.00           LAND SURFACE =         -34655.83
            SOIL ZONE =        2189562.50              SOIL ZONE =            661.48
     UNSATURATED ZONE =       -1676540.88       UNSATURATED ZONE =         -10756.43
       SATURATED ZONE =        -639716.69         SATURATED ZONE =          -8415.48

 OVERALL BUDGET ERROR =         -10747.50           BUDGET ERROR =            -74.47


  PERCENT DISCREPANCY =             -0.09    PERCENT DISCREPANCY =             -0.14



1
 SUMMARY VOLUMETRIC BUDGET FOR GSFLOW 
 DATE: 02 17 1981              CUMULATIVE TIME STEP:     140
 MODFLOW STRESS PERIOD      2     CURRENT TIME STEP:     140     ITERATIONS:      16

 -----------------------------------------------------------------------------------

   CUMULATIVE VOLUMES               L**3   RATES FOR THIS TIME STEP           L**3/T
   ------------------                      ------------------------

                                     IN                                         IN
                                     --                                         --
        PRECIPITATION =        1.2765E+07          PRECIPITATION =          68929.27
           STREAMFLOW =                               STREAMFLOW =                  
     GW BOUNDARY FLOW =                         GW BOUNDARY FLOW =                  
                WELLS =                                    WELLS =                  


                                    OUT                                        OUT
                                    ---                                        ---
   EVAPOTRANSPIRATION =        3759705.00     EVAPOTRANSPIRATION =          68102.27
           STREAMFLOW =        2308280.00             STREAMFLOW =          89792.82
     GW BOUNDARY FLOW =          90983.27       GW BOUNDARY FLOW =            655.38
                WELLS =                                    WELLS =                  

   INFLOWS - OUTFLOWS =        6605999.50     INFLOWS - OUTFLOWS =         -89621.21
             --------                                   --------

 TOTAL STORAGE CHANGE =        6617179.00         STORAGE CHANGE =         -89583.51
       --------------                             --------------
         LAND SURFACE =        5572063.00           LAND SURFACE =        -287679.06
            SOIL ZONE =        3106792.00              SOIL ZONE =         106417.56
     UNSATURATED ZONE =       -1405911.00       UNSATURATED ZONE =          88367.46
       SATURATED ZONE =        -655764.44         SATURATED ZONE =           3310.52

 OVERALL BUDGET ERROR =         -11179.50           BUDGET ERROR =            -37.70


  PERCENT DISCREPANCY =             -0.09    PERCENT DISCREPANCY =             -0.02



1
 SUMMARY VOLUMETRIC BUDGET FOR GSFLOW 
 DATE: 02 24 1981              CUMULATIVE TIME STEP:     147
 MODFLOW STRESS PERIOD      2     CURRENT TIME STEP:     147     ITERATIONS:      14

 -----------------------------------------------------------------------------------

   CUMULATIVE VOLUMES               L**3   RATES FOR THIS TIME STEP           L**3/T
   ------------------                      ------------------------

                                     IN                                         IN
                                     --                                         --
        PRECIPITATION =        1.3179E+07          PRECIPITATION =         344646.31
           STREAMFLOW =                               STREAMFLOW =                  
     GW BOUNDARY FLOW =                         GW BOUNDARY FLOW =                  
                WELLS =                                    WELLS =                  


                                    OUT                                        OUT
                                    ---                                        ---
   EVAPOTRANSPIRATION =        4108465.75     EVAPOTRANSPIRATION =          19833.49
           STREAMFLOW =        2873971.50             STREAMFLOW =          60708.75
     GW BOUNDARY FLOW =          95578.20       GW BOUNDARY FLOW =            656.01
                WELLS =                                    WELLS =                  

   INFLOWS - OUTFLOWS =        6100527.50     INFLOWS - OUTFLOWS =         263448.06
             --------                                   --------

 TOTAL STORAGE CHANGE =        6111804.00         STORAGE CHANGE =         263450.19
       --------------                             --------------
         LAND SURFACE =        4880962.00           LAND SURFACE =         299478.63
            SOIL ZONE =        2809774.50              SOIL ZONE =         -78409.19
     UNSATURATED ZONE =        -970568.25       UNSATURATED ZONE =          36158.71
       SATURATED ZONE =        -608362.81         SATURATED ZONE =           6222.03

 OVERALL BUDGET ERROR =         -11276.50           BUDGET ERROR =             -2.13


  PERCENT DISCREPANCY =             -0.09    PERCENT DISCREPANCY =             -0.00



1
 SUMMARY VOLUMETRIC BUDGET FOR GSFLOW 
 DATE: 03 03 1981              CUMULATIVE TIME STEP:     154
 MODFLOW STRESS PERIOD      2     CURRENT TIME STEP:     154     ITERATIONS:      13

 -----------------------------------------------------------------------------------

   CUMULATIVE VOLUMES               L**3   RATES FOR THIS TIME STEP           L**3/T
   ------------------                      ------------------------

                                     IN                                         IN
                                     --                                         --
        PRECIPITATION =        1.3447E+07          PRECIPITATION =                  
           STREAMFLOW =                               STREAMFLOW =                  
     GW BOUNDARY FLOW =                         GW BOUNDARY FLOW =                  
                WELLS =                                    WELLS =                  


                                    OUT                                        OUT
                                    ---                                        ---
   EVAPOTRANSPIRATION =        4271100.50     EVAPOTRANSPIRATION =          44522.60
           STREAMFLOW =        3134025.50             STREAMFLOW =          28681.94
     GW BOUNDARY FLOW =         100155.65       GW BOUNDARY FLOW =            652.61
                WELLS =                                    WELLS =                  

   INFLOWS - OUTFLOWS =        5941319.50     INFLOWS - OUTFLOWS =         -73857.14
             --------                                   --------

 TOTAL STORAGE CHANGE =        5952681.50         STORAGE CHANGE =         -73843.97
       --------------                             --------------
         LAND SURFACE =        4965147.00           LAND SURFACE =         -64104.69
            SOIL ZONE =        2526489.50              SOIL ZONE =          -1322.69
     UNSATURATED ZONE =        -944952.00       UNSATURATED ZONE =          -8372.54
       SATURATED ZONE =        -594002.13         SATURATED ZONE =            -44.05

 OVERALL BUDGET ERROR =         -11362.00           BUDGET ERROR =            -13.17


  PERCENT DISCREPANCY =             -0.08    PERCENT DISCREPANCY =             -0.02



1
 SUMMARY VOLUMETRIC BUDGET FOR GSFLOW 
 DATE: 03 10 1981              CUMULATIVE TIME STEP:     161
 MODFLOW STRESS PERIOD      2     CURRENT TIME STEP:     161     ITERATIONS:      13

 -----------------------------------------------------------------------------------

   CUMULATIVE VOLUMES               L**3   RATES FOR THIS TIME STEP           L**3/T
   ------------------                      ------------------------

                                     IN                                         IN
                                     --                                         --
        PRECIPITATION =        1.3493E+07          PRECIPITATION =                  
           STREAMFLOW =                               STREAMFLOW =                  
     GW BOUNDARY FLOW =                         GW BOUNDARY FLOW =                  
                WELLS =                                    WELLS =                  


                                    OUT                                        OUT
                                    ---                                        ---
   EVAPOTRANSPIRATION =        4587988.00     EVAPOTRANSPIRATION =          63183.23
           STREAMFLOW =        3359622.25             STREAMFLOW =          39710.39
     GW BOUNDARY FLOW =         104722.16       GW BOUNDARY FLOW =            652.84
                WELLS =                                    WELLS =                  

   INFLOWS - OUTFLOWS =        5440606.50     INFLOWS - OUTFLOWS =        -103546.47
             --------                                   --------

 TOTAL STORAGE CHANGE =        5452113.00         STORAGE CHANGE =        -103523.56
       --------------                             --------------
         LAND SURFACE =        4285741.50           LAND SURFACE =        -166602.50
            SOIL ZONE =        2669173.50              SOIL ZONE =          38776.91
     UNSATURATED ZONE =        -909959.38       UNSATURATED ZONE =          23085.54
       SATURATED ZONE =        -592841.75         SATURATED ZONE =           1216.49

 OVERALL BUDGET ERROR =         -11506.50           BUDGET ERROR =            -22.91


  PERCENT DISCREPANCY =             -0.09    PERCENT DISCREPANCY =             -0.02



1
 SUMMARY VOLUMETRIC BUDGET FOR GSFLOW 
 DATE: 03 17 1981              CUMULATIVE TIME STEP:     168
 MODFLOW STRESS PERIOD      2     CURRENT TIME STEP:     168     ITERATIONS:      11

 -----------------------------------------------------------------------------------

   CUMULATIVE VOLUMES               L**3   RATES FOR THIS TIME STEP           L**3/T
   ------------------                      ------------------------

                                     IN                                         IN
                                     --                                         --
        PRECIPITATION =        1.3744E+07          PRECIPITATION =                  
           STREAMFLOW =                               STREAMFLOW =                  
     GW BOUNDARY FLOW =                         GW BOUNDARY FLOW =                  
                WELLS =                                    WELLS =                  


                                    OUT                                        OUT
                                    ---                                        ---
   EVAPOTRANSPIRATION =        4944460.50     EVAPOTRANSPIRATION =          39557.79
           STREAMFLOW =        3603936.50             STREAMFLOW =          26791.76
     GW BOUNDARY FLOW =         109291.55       GW BOUNDARY FLOW =            652.36
                WELLS =                                    WELLS =                  

   INFLOWS - OUTFLOWS =        5086800.00     INFLOWS - OUTFLOWS =         -67001.91
             --------                                   --------

 TOTAL STORAGE CHANGE =        5098407.00         STORAGE CHANGE =         -66975.80
       --------------                             --------------
         LAND SURFACE =        4101663.00           LAND SURFACE =         -39206.70
            SOIL ZONE =        2476552.00              SOIL ZONE =          -8081.39
     UNSATURATED ZONE =        -882131.75       UNSATURATED ZONE =         -16947.06
       SATURATED ZONE =        -597675.13         SATURATED ZONE =          -2740.65

 OVERALL BUDGET ERROR =         -11607.00           BUDGET ERROR =            -26.11


  PERCENT DISCREPANCY =             -0.08    PERCENT DISCREPANCY =             -0.04



1
 SUMMARY VOLUMETRIC BUDGET FOR GSFLOW 
 DATE: 03 24 1981              CUMULATIVE TIME STEP:     175
 MODFLOW STRESS PERIOD      2     CURRENT TIME STEP:     175     ITERATIONS:      10

 -----------------------------------------------------------------------------------

   CUMULATIVE VOLUMES               L**3   RATES FOR THIS TIME STEP           L**3/T
   ------------------                      ------------------------

                                     IN                                         IN
                                     --                                         --
        PRECIPITATION =        1.4367E+07          PRECIPITATION =                  
           STREAMFLOW =                               STREAMFLOW =                  
     GW BOUNDARY FLOW =                         GW BOUNDARY FLOW =                  
                WELLS =                                    WELLS =                  


                                    OUT                                        OUT
                                    ---                                        ---
   EVAPOTRANSPIRATION =        5297517.50     EVAPOTRANSPIRATION =          85696.13
           STREAMFLOW =        3778746.00             STREAMFLOW =          28077.74
     GW BOUNDARY FLOW =         113853.26       GW BOUNDARY FLOW =            651.49
                WELLS =                                    WELLS =                  

   INFLOWS - OUTFLOWS =        5176627.00     INFLOWS - OUTFLOWS =        -114425.36
             --------                                   --------

 TOTAL STORAGE CHANGE =        5188428.00         STORAGE CHANGE =        -114394.93
       --------------                             --------------
         LAND SURFACE =        4399756.50           LAND SURFACE =         -79293.00
            SOIL ZONE =        2377788.25              SOIL ZONE =         -27321.69
     UNSATURATED ZONE =        -966841.94       UNSATURATED ZONE =          -4203.69
       SATURATED ZONE =        -622273.81         SATURATED ZONE =          -3576.56

 OVERALL BUDGET ERROR =         -11801.00           BUDGET ERROR =            -30.43


  PERCENT DISCREPANCY =             -0.08    PERCENT DISCREPANCY =             -0.03



1
 SUMMARY VOLUMETRIC BUDGET FOR GSFLOW 
 DATE: 03 31 1981              CUMULATIVE TIME STEP:     182
 MODFLOW STRESS PERIOD      2     CURRENT TIME STEP:     182     ITERATIONS:      12

 -----------------------------------------------------------------------------------

   CUMULATIVE VOLUMES               L**3   RATES FOR THIS TIME STEP           L**3/T
   ------------------                      ------------------------

                                     IN                                         IN
                                     --                                         --
        PRECIPITATION =        1.5777E+07          PRECIPITATION =                  
           STREAMFLOW =                               STREAMFLOW =                  
     GW BOUNDARY FLOW =                         GW BOUNDARY FLOW =                  
                WELLS =                                    WELLS =                  


                                    OUT                                        OUT
                                    ---                                        ---
   EVAPOTRANSPIRATION =        5723027.50     EVAPOTRANSPIRATION =          55419.54
           STREAMFLOW =        4178079.00             STREAMFLOW =          43846.96
     GW BOUNDARY FLOW =         118430.71       GW BOUNDARY FLOW =            654.00
                WELLS =                                    WELLS =                  

   INFLOWS - OUTFLOWS =        5757210.00     INFLOWS - OUTFLOWS =         -99920.50
             --------                                   --------

 TOTAL STORAGE CHANGE =        5769112.50         STORAGE CHANGE =         -99916.66
       --------------                             --------------
         LAND SURFACE =        4507375.00           LAND SURFACE =         -57644.48
            SOIL ZONE =        2598178.50              SOIL ZONE =         -49911.06
     UNSATURATED ZONE =        -731558.44       UNSATURATED ZONE =           6782.25
       SATURATED ZONE =        -604882.19         SATURATED ZONE =            856.63

 OVERALL BUDGET ERROR =         -11902.50           BUDGET ERROR =             -3.84


  PERCENT DISCREPANCY =             -0.08    PERCENT DISCREPANCY =             -0.00



1
 SUMMARY VOLUMETRIC BUDGET FOR GSFLOW 
 DATE: 04 07 1981              CUMULATIVE TIME STEP:     189
 MODFLOW STRESS PERIOD      2     CURRENT TIME STEP:     189     ITERATIONS:      10

 -----------------------------------------------------------------------------------

   CUMULATIVE VOLUMES               L**3   RATES FOR THIS TIME STEP           L**3/T
   ------------------                      ------------------------

                                     IN                                         IN
                                     --                                         --
        PRECIPITATION =        1.6121E+07          PRECIPITATION =                  
           STREAMFLOW =                               STREAMFLOW =                  
     GW BOUNDARY FLOW =                         GW BOUNDARY FLOW =                  
                WELLS =                                    WELLS =                  


                                    OUT                                        OUT
                                    ---                                        ---
   EVAPOTRANSPIRATION =        6355575.50     EVAPOTRANSPIRATION =         106275.35
           STREAMFLOW =        4492715.50             STREAMFLOW =          46999.38
     GW BOUNDARY FLOW =         123007.96       GW BOUNDARY FLOW =            654.04
                WELLS =                                    WELLS =                  

   INFLOWS - OUTFLOWS =        5150167.00     INFLOWS - OUTFLOWS =        -153928.77
             --------                                   --------

 TOTAL STORAGE CHANGE =        5162090.50         STORAGE CHANGE =        -153940.59
       --------------                             --------------
         LAND SURFACE =        3856728.75           LAND SURFACE =        -144614.75
            SOIL ZONE =        2537006.50              SOIL ZONE =         -23056.88
     UNSATURATED ZONE =        -644343.75       UNSATURATED ZONE =          11197.98
       SATURATED ZONE =        -587301.00         SATURATED ZONE =           2533.06

 OVERALL BUDGET ERROR =         -11923.50           BUDGET ERROR =             11.83


  PERCENT DISCREPANCY =             -0.07    PERCENT DISCREPANCY =              0.01



1
 SUMMARY VOLUMETRIC BUDGET FOR GSFLOW 
 DATE: 04 14 1981              CUMULATIVE TIME STEP:     196
 MODFLOW STRESS PERIOD      2     CURRENT TIME STEP:     196     ITERATIONS:      14

 -----------------------------------------------------------------------------------

   CUMULATIVE VOLUMES               L**3   RATES FOR THIS TIME STEP           L**3/T
   ------------------                      ------------------------

                                     IN                                         IN
                                     --                                         --
        PRECIPITATION =        1.6121E+07          PRECIPITATION =                  
           STREAMFLOW =                               STREAMFLOW =                  
     GW BOUNDARY FLOW =                         GW BOUNDARY FLOW =                  
                WELLS =                                    WELLS =                  


                                    OUT                                        OUT
                                    ---                                        ---
   EVAPOTRANSPIRATION =        7282611.00     EVAPOTRANSPIRATION =         190847.38
           STREAMFLOW =        4797433.50             STREAMFLOW =          45264.33
     GW BOUNDARY FLOW =         127583.62       GW BOUNDARY FLOW =            653.18
                WELLS =                                    WELLS =                  

   INFLOWS - OUTFLOWS =        3913838.00     INFLOWS - OUTFLOWS =        -236764.89
             --------                                   --------

 TOTAL STORAGE CHANGE =        3925734.00         STORAGE CHANGE =        -236776.16
       --------------                             --------------
         LAND SURFACE =        2607071.25           LAND SURFACE =        -246925.00
            SOIL ZONE =        2442977.75              SOIL ZONE =         -13715.56
     UNSATURATED ZONE =        -558415.19       UNSATURATED ZONE =          19787.88
       SATURATED ZONE =        -565899.44         SATURATED ZONE =           4076.53

 OVERALL BUDGET ERROR =         -11896.00           BUDGET ERROR =             11.27


  PERCENT DISCREPANCY =             -0.07    PERCENT DISCREPANCY =              0.00



1
 SUMMARY VOLUMETRIC BUDGET FOR GSFLOW 
 DATE: 04 21 1981              CUMULATIVE TIME STEP:     203
 MODFLOW STRESS PERIOD      2     CURRENT TIME STEP:     203     ITERATIONS:      13

 -----------------------------------------------------------------------------------

   CUMULATIVE VOLUMES               L**3   RATES FOR THIS TIME STEP           L**3/T
   ------------------                      ------------------------

                                     IN                                         IN
                                     --                                         --
        PRECIPITATION =        1.6310E+07          PRECIPITATION =                  
           STREAMFLOW =                               STREAMFLOW =                  
     GW BOUNDARY FLOW =                         GW BOUNDARY FLOW =                  
                WELLS =                                    WELLS =                  


                                    OUT                                        OUT
                                    ---                                        ---
   EVAPOTRANSPIRATION =        8361171.00     EVAPOTRANSPIRATION =         153991.03
           STREAMFLOW =        5098259.50             STREAMFLOW =          41530.08
     GW BOUNDARY FLOW =         132151.70       GW BOUNDARY FLOW =            652.19
                WELLS =                                    WELLS =                  

   INFLOWS - OUTFLOWS =        2718659.00     INFLOWS - OUTFLOWS =        -196173.30
             --------                                   --------

 TOTAL STORAGE CHANGE =        2730498.25         STORAGE CHANGE =        -196186.91
       --------------                             --------------
         LAND SURFACE =        1437174.38           LAND SURFACE =        -120343.75
            SOIL ZONE =        2274714.00              SOIL ZONE =         -96992.28
     UNSATURATED ZONE =        -444930.72       UNSATURATED ZONE =          16719.88
       SATURATED ZONE =        -536458.44         SATURATED ZONE =           4429.25

 OVERALL BUDGET ERROR =         -11839.25           BUDGET ERROR =             13.61


  PERCENT DISCREPANCY =             -0.07    PERCENT DISCREPANCY =              0.01



1
 SUMMARY VOLUMETRIC BUDGET FOR GSFLOW 
 DATE: 04 28 1981              CUMULATIVE TIME STEP:     210
 MODFLOW STRESS PERIOD      2     CURRENT TIME STEP:     210     ITERATIONS:      14

 -----------------------------------------------------------------------------------

   CUMULATIVE VOLUMES               L**3   RATES FOR THIS TIME STEP           L**3/T
   ------------------                      ------------------------

                                     IN                                         IN
                                     --                                         --
        PRECIPITATION =        1.6515E+07          PRECIPITATION =                  
           STREAMFLOW =                               STREAMFLOW =                  
     GW BOUNDARY FLOW =                         GW BOUNDARY FLOW =                  
                WELLS =                                    WELLS =                  


                                    OUT                                        OUT
                                    ---                                        ---
   EVAPOTRANSPIRATION =        9613588.00     EVAPOTRANSPIRATION =         201317.80
           STREAMFLOW =        5299362.50             STREAMFLOW =          21631.65
     GW BOUNDARY FLOW =         136709.80       GW BOUNDARY FLOW =            650.30
                WELLS =                                    WELLS =                  

   INFLOWS - OUTFLOWS =        1465771.00     INFLOWS - OUTFLOWS =        -223599.75
             --------                                   --------

 TOTAL STORAGE CHANGE =        1477567.25         STORAGE CHANGE =        -223605.16
       --------------                             --------------
         LAND SURFACE =         719232.06           LAND SURFACE =         -80881.88
            SOIL ZONE =        1732480.00              SOIL ZONE =        -138277.06
     UNSATURATED ZONE =        -455164.59       UNSATURATED ZONE =          -5653.11
       SATURATED ZONE =        -518979.31         SATURATED ZONE =           1206.88

 OVERALL BUDGET ERROR =         -11796.25           BUDGET ERROR =              5.41


  PERCENT DISCREPANCY =             -0.07    PERCENT DISCREPANCY =              0.00



1
 SUMMARY VOLUMETRIC BUDGET FOR GSFLOW 
 DATE: 05 05 1981              CUMULATIVE TIME STEP:     217
 MODFLOW STRESS PERIOD      2     CURRENT TIME STEP:     217     ITERATIONS:      14

 -----------------------------------------------------------------------------------

   CUMULATIVE VOLUMES               L**3   RATES FOR THIS TIME STEP           L**3/T
   ------------------                      ------------------------

                                     IN                                         IN
                                     --                                         --
        PRECIPITATION =        1.6515E+07          PRECIPITATION =                  
           STREAMFLOW =                               STREAMFLOW =                  
     GW BOUNDARY FLOW =                         GW BOUNDARY FLOW =                  
                WELLS =                                    WELLS =                  


                                    OUT                                        OUT
                                    ---                                        ---
   EVAPOTRANSPIRATION =        1.0473E+07     EVAPOTRANSPIRATION =          53275.97
           STREAMFLOW =        5399240.50             STREAMFLOW =          10863.31
     GW BOUNDARY FLOW =         141255.45       GW BOUNDARY FLOW =            648.79
                WELLS =                                    WELLS =                  

   INFLOWS - OUTFLOWS =         502101.00     INFLOWS - OUTFLOWS =         -64788.07
             --------                                   --------

 TOTAL STORAGE CHANGE =         513966.13         STORAGE CHANGE =         -64774.93
       --------------                             --------------
         LAND SURFACE =         378462.03           LAND SURFACE =         -18046.09
            SOIL ZONE =        1217734.75              SOIL ZONE =         -27699.41
     UNSATURATED ZONE =        -557121.44       UNSATURATED ZONE =         -16857.61
       SATURATED ZONE =        -525108.50         SATURATED ZONE =          -2171.81

 OVERALL BUDGET ERROR =         -11865.13           BUDGET ERROR =            -13.14


  PERCENT DISCREPANCY =             -0.07    PERCENT DISCREPANCY =             -0.02



1
 SUMMARY VOLUMETRIC BUDGET FOR GSFLOW 
 DATE: 05 12 1981              CUMULATIVE TIME STEP:     224
 MODFLOW STRESS PERIOD      2     CURRENT TIME STEP:     224     ITERATIONS:      19

 -----------------------------------------------------------------------------------

   CUMULATIVE VOLUMES               L**3   RATES FOR THIS TIME STEP           L**3/T
   ------------------                      ------------------------

                                     IN                                         IN
                                     --                                         --
        PRECIPITATION =        1.6515E+07          PRECIPITATION =                  
           STREAMFLOW =                               STREAMFLOW =                  
     GW BOUNDARY FLOW =                         GW BOUNDARY FLOW =                  
                WELLS =                                    WELLS =                  


                                    OUT                                        OUT
                                    ---                                        ---
   EVAPOTRANSPIRATION =        1.0966E+07     EVAPOTRANSPIRATION =          88580.80
           STREAMFLOW =        5468321.50             STREAMFLOW =           9856.38
     GW BOUNDARY FLOW =         145794.19       GW BOUNDARY FLOW =            648.22
                WELLS =                                    WELLS =                  

   INFLOWS - OUTFLOWS =         -64495.00     INFLOWS - OUTFLOWS =         -99085.40
             --------                                   --------

 TOTAL STORAGE CHANGE =         -52453.98         STORAGE CHANGE =         -99057.11
       --------------                             --------------
         LAND SURFACE =         225205.50           LAND SURFACE =         -27155.73
            SOIL ZONE =         938268.75              SOIL ZONE =         -53221.67
     UNSATURATED ZONE =        -664183.38       UNSATURATED ZONE =         -13916.91
       SATURATED ZONE =        -551744.31         SATURATED ZONE =          -4762.79

 OVERALL BUDGET ERROR =         -12041.02           BUDGET ERROR =            -28.29


  PERCENT DISCREPANCY =             -0.07    PERCENT DISCREPANCY =             -0.03



1
 SUMMARY VOLUMETRIC BUDGET FOR GSFLOW 
 DATE: 05 19 1981              CUMULATIVE TIME STEP:     231
 MODFLOW STRESS PERIOD      2     CURRENT TIME STEP:     231     ITERATIONS:      20

 -----------------------------------------------------------------------------------

   CUMULATIVE VOLUMES               L**3   RATES FOR THIS TIME STEP           L**3/T
   ------------------                      ------------------------

                                     IN                                         IN
                                     --                                         --
        PRECIPITATION =        1.7837E+07          PRECIPITATION =         169045.42
           STREAMFLOW =                               STREAMFLOW =                  
     GW BOUNDARY FLOW =                         GW BOUNDARY FLOW =                  
                WELLS =                                    WELLS =                  


                                    OUT                                        OUT
                                    ---                                        ---
   EVAPOTRANSPIRATION =        1.1360E+07     EVAPOTRANSPIRATION =          31098.90
           STREAMFLOW =        5569802.50             STREAMFLOW =          25232.55
     GW BOUNDARY FLOW =         150332.69       GW BOUNDARY FLOW =            649.06
                WELLS =                                    WELLS =                  

   INFLOWS - OUTFLOWS =         756924.00     INFLOWS - OUTFLOWS =         112064.92
             --------                                   --------

 TOTAL STORAGE CHANGE =         769101.38         STORAGE CHANGE =         112074.13
       --------------                             --------------
         LAND SURFACE =         194184.73           LAND SURFACE =          20899.68
            SOIL ZONE =        1889359.88              SOIL ZONE =          95124.50
     UNSATURATED ZONE =        -730709.75       UNSATURATED ZONE =           -483.66
       SATURATED ZONE =        -583732.94         SATURATED ZONE =          -3466.39

 OVERALL BUDGET ERROR =         -12177.38           BUDGET ERROR =             -9.21


  PERCENT DISCREPANCY =             -0.07    PERCENT DISCREPANCY =             -0.01



1
 SUMMARY VOLUMETRIC BUDGET FOR GSFLOW 
 DATE: 05 26 1981              CUMULATIVE TIME STEP:     238
 MODFLOW STRESS PERIOD      2     CURRENT TIME STEP:     238     ITERATIONS:      18

 -----------------------------------------------------------------------------------

   CUMULATIVE VOLUMES               L**3   RATES FOR THIS TIME STEP           L**3/T
   ------------------                      ------------------------

                                     IN                                         IN
                                     --                                         --
        PRECIPITATION =        1.8252E+07          PRECIPITATION =         284303.69
           STREAMFLOW =                               STREAMFLOW =                  
     GW BOUNDARY FLOW =                         GW BOUNDARY FLOW =                  
                WELLS =                                    WELLS =                  


                                    OUT                                        OUT
                                    ---                                        ---
   EVAPOTRANSPIRATION =        1.2206E+07     EVAPOTRANSPIRATION =         134158.22
           STREAMFLOW =        5681998.50             STREAMFLOW =          16040.31
     GW BOUNDARY FLOW =         154873.89       GW BOUNDARY FLOW =            648.47
                WELLS =                                    WELLS =                  

   INFLOWS - OUTFLOWS =         209522.00     INFLOWS - OUTFLOWS =         133456.69
             --------                                   --------

 TOTAL STORAGE CHANGE =         221883.67         STORAGE CHANGE =         133480.44
       --------------                             --------------
         LAND SURFACE =         117521.54           LAND SURFACE =          -7365.63
            SOIL ZONE =        1520680.13              SOIL ZONE =         156993.23
     UNSATURATED ZONE =        -793845.69       UNSATURATED ZONE =         -10117.26
       SATURATED ZONE =        -622471.63         SATURATED ZONE =          -6029.91

 OVERALL BUDGET ERROR =         -12361.67           BUDGET ERROR =            -23.75


  PERCENT DISCREPANCY =             -0.07    PERCENT DISCREPANCY =             -0.01



1
 SUMMARY VOLUMETRIC BUDGET FOR GSFLOW 
 DATE: 06 02 1981              CUMULATIVE TIME STEP:     245
 MODFLOW STRESS PERIOD      2     CURRENT TIME STEP:     245     ITERATIONS:      18

 -----------------------------------------------------------------------------------

   CUMULATIVE VOLUMES               L**3   RATES FOR THIS TIME STEP           L**3/T
   ------------------                      ------------------------

                                     IN                                         IN
                                     --                                         --
        PRECIPITATION =        1.8318E+07          PRECIPITATION =          50869.96
           STREAMFLOW =                               STREAMFLOW =                  
     GW BOUNDARY FLOW =                         GW BOUNDARY FLOW =                  
                WELLS =                                    WELLS =                  


                                    OUT                                        OUT
                                    ---                                        ---
   EVAPOTRANSPIRATION =        1.2995E+07     EVAPOTRANSPIRATION =          79566.34
           STREAMFLOW =        5757831.00             STREAMFLOW =           8219.50
     GW BOUNDARY FLOW =         159410.17       GW BOUNDARY FLOW =            647.63
                WELLS =                                    WELLS =                  

   INFLOWS - OUTFLOWS =        -594390.00     INFLOWS - OUTFLOWS =         -37563.50
             --------                                   --------

 TOTAL STORAGE CHANGE =        -581795.94         STORAGE CHANGE =         -37534.85
       --------------                             --------------
         LAND SURFACE =          73955.42           LAND SURFACE =          28859.94
            SOIL ZONE =         902050.44              SOIL ZONE =         -44969.69
     UNSATURATED ZONE =        -885298.44       UNSATURATED ZONE =         -13728.11
       SATURATED ZONE =        -672502.81         SATURATED ZONE =          -7696.98

 OVERALL BUDGET ERROR =         -12594.06           BUDGET ERROR =            -28.66


  PERCENT DISCREPANCY =             -0.07    PERCENT DISCREPANCY =             -0.03



1
 SUMMARY VOLUMETRIC BUDGET FOR GSFLOW 
 DATE: 06 09 1981              CUMULATIVE TIME STEP:     252
 MODFLOW STRESS PERIOD      2     CURRENT TIME STEP:     252     ITERATIONS:      15

 -----------------------------------------------------------------------------------

   CUMULATIVE VOLUMES               L**3   RATES FOR THIS TIME STEP           L**3/T
   ------------------                      ------------------------

                                     IN                                         IN
                                     --                                         --
        PRECIPITATION =        1.8318E+07          PRECIPITATION =                  
           STREAMFLOW =                               STREAMFLOW =                  
     GW BOUNDARY FLOW =                         GW BOUNDARY FLOW =                  
[...]
   ------------------                      ------------------------

                                     IN                                         IN
                                     --                                         --
        PRECIPITATION =        4.6511E+08          PRECIPITATION =                  
           STREAMFLOW =                               STREAMFLOW =                  
     GW BOUNDARY FLOW =                         GW BOUNDARY FLOW =                  
                WELLS =                                    WELLS =                  


                                    OUT                                        OUT
                                    ---                                        ---
   EVAPOTRANSPIRATION =        2.9057E+08     EVAPOTRANSPIRATION =          26076.21
           STREAMFLOW =        1.7554E+08             STREAMFLOW =           8123.88
     GW BOUNDARY FLOW =        3756221.75       GW BOUNDARY FLOW =            655.91
                WELLS =                                    WELLS =                  

   INFLOWS - OUTFLOWS =       -4750240.00     INFLOWS - OUTFLOWS =         -34856.00
             --------                                   --------

 TOTAL STORAGE CHANGE =       -4565709.00         STORAGE CHANGE =         -34869.11
       --------------                             --------------
         LAND SURFACE =            323.60           LAND SURFACE =           -298.58
            SOIL ZONE =         199563.27              SOIL ZONE =          -9744.11
     UNSATURATED ZONE =        3768302.75       UNSATURATED ZONE =         -29772.34
       SATURATED ZONE =       -8533903.00         SATURATED ZONE =           4945.92

 OVERALL BUDGET ERROR =        -184531.00           BUDGET ERROR =             13.11


  PERCENT DISCREPANCY =             -0.04    PERCENT DISCREPANCY =              0.04



1
 SUMMARY VOLUMETRIC BUDGET FOR GSFLOW 
 DATE: 08 06 1996              CUMULATIVE TIME STEP:    5789
 MODFLOW STRESS PERIOD      2     CURRENT TIME STEP:    5789     ITERATIONS:      17

 -----------------------------------------------------------------------------------

   CUMULATIVE VOLUMES               L**3   RATES FOR THIS TIME STEP           L**3/T
   ------------------                      ------------------------

                                     IN                                         IN
                                     --                                         --
        PRECIPITATION =        4.6511E+08          PRECIPITATION =                  
           STREAMFLOW =                               STREAMFLOW =                  
     GW BOUNDARY FLOW =                         GW BOUNDARY FLOW =                  
                WELLS =                                    WELLS =                  


                                    OUT                                        OUT
                                    ---                                        ---
   EVAPOTRANSPIRATION =        2.9071E+08     EVAPOTRANSPIRATION =          18169.49
           STREAMFLOW =        1.7559E+08             STREAMFLOW =           7839.97
     GW BOUNDARY FLOW =        3760811.50       GW BOUNDARY FLOW =            655.55
                WELLS =                                    WELLS =                  

   INFLOWS - OUTFLOWS =       -4954240.00     INFLOWS - OUTFLOWS =         -26665.01
             --------                                   --------

 TOTAL STORAGE CHANGE =       -4769760.00         STORAGE CHANGE =         -26672.26
       --------------                             --------------
         LAND SURFACE =             19.26           LAND SURFACE =                  
            SOIL ZONE =         167873.47              SOIL ZONE =          -2270.57
     UNSATURATED ZONE =        3569899.00       UNSATURATED ZONE =         -27202.74
       SATURATED ZONE =       -8507555.00         SATURATED ZONE =           2801.05

 OVERALL BUDGET ERROR =        -184480.00           BUDGET ERROR =              7.25


  PERCENT DISCREPANCY =             -0.04    PERCENT DISCREPANCY =              0.03



1
 SUMMARY VOLUMETRIC BUDGET FOR GSFLOW 
 DATE: 08 13 1996              CUMULATIVE TIME STEP:    5796
 MODFLOW STRESS PERIOD      2     CURRENT TIME STEP:    5796     ITERATIONS:      15

 -----------------------------------------------------------------------------------

   CUMULATIVE VOLUMES               L**3   RATES FOR THIS TIME STEP           L**3/T
   ------------------                      ------------------------

                                     IN                                         IN
                                     --                                         --
        PRECIPITATION =        4.6531E+08          PRECIPITATION =          54454.07
           STREAMFLOW =                               STREAMFLOW =                  
     GW BOUNDARY FLOW =                         GW BOUNDARY FLOW =                  
                WELLS =                                    WELLS =                  


                                    OUT                                        OUT
                                    ---                                        ---
   EVAPOTRANSPIRATION =        2.9088E+08     EVAPOTRANSPIRATION =          30741.23
           STREAMFLOW =        1.7565E+08             STREAMFLOW =           9017.63
     GW BOUNDARY FLOW =        3765399.00       GW BOUNDARY FLOW =            655.28
                WELLS =                                    WELLS =                  

   INFLOWS - OUTFLOWS =       -4985152.00     INFLOWS - OUTFLOWS =          14039.93
             --------                                   --------

 TOTAL STORAGE CHANGE =       -4800738.50         STORAGE CHANGE =          14025.48
       --------------                             --------------
         LAND SURFACE =          34524.33           LAND SURFACE =                  
            SOIL ZONE =         271455.00              SOIL ZONE =          37982.42
     UNSATURATED ZONE =        3381977.25       UNSATURATED ZONE =         -26659.53
       SATURATED ZONE =       -8488698.00         SATURATED ZONE =           2702.59

 OVERALL BUDGET ERROR =        -184413.50           BUDGET ERROR =             14.45


  PERCENT DISCREPANCY =             -0.04    PERCENT DISCREPANCY =              0.03



1
 SUMMARY VOLUMETRIC BUDGET FOR GSFLOW 
 DATE: 08 20 1996              CUMULATIVE TIME STEP:    5803
 MODFLOW STRESS PERIOD      2     CURRENT TIME STEP:    5803     ITERATIONS:      15

 -----------------------------------------------------------------------------------

   CUMULATIVE VOLUMES               L**3   RATES FOR THIS TIME STEP           L**3/T
   ------------------                      ------------------------

                                     IN                                         IN
                                     --                                         --
        PRECIPITATION =        4.6531E+08          PRECIPITATION =                  
           STREAMFLOW =                               STREAMFLOW =                  
     GW BOUNDARY FLOW =                         GW BOUNDARY FLOW =                  
                WELLS =                                    WELLS =                  


                                    OUT                                        OUT
                                    ---                                        ---
   EVAPOTRANSPIRATION =        2.9108E+08     EVAPOTRANSPIRATION =          18639.59
           STREAMFLOW =        1.7571E+08             STREAMFLOW =           7566.84
     GW BOUNDARY FLOW =        3769984.00       GW BOUNDARY FLOW =            654.76
                WELLS =                                    WELLS =                  

   INFLOWS - OUTFLOWS =       -5245664.00     INFLOWS - OUTFLOWS =         -26861.19
             --------                                   --------

 TOTAL STORAGE CHANGE =       -5061292.00         STORAGE CHANGE =         -26872.47
       --------------                             --------------
         LAND SURFACE =             19.26           LAND SURFACE =                  
            SOIL ZONE =         212131.30              SOIL ZONE =          -3211.51
     UNSATURATED ZONE =        3204491.00       UNSATURATED ZONE =         -24700.48
       SATURATED ZONE =       -8477936.00         SATURATED ZONE =           1039.52

 OVERALL BUDGET ERROR =        -184372.00           BUDGET ERROR =             11.28


  PERCENT DISCREPANCY =             -0.04    PERCENT DISCREPANCY =              0.04



1
 SUMMARY VOLUMETRIC BUDGET FOR GSFLOW 
 DATE: 08 27 1996              CUMULATIVE TIME STEP:    5810
 MODFLOW STRESS PERIOD      2     CURRENT TIME STEP:    5810     ITERATIONS:      25

 -----------------------------------------------------------------------------------

   CUMULATIVE VOLUMES               L**3   RATES FOR THIS TIME STEP           L**3/T
   ------------------                      ------------------------

                                     IN                                         IN
                                     --                                         --
        PRECIPITATION =        4.6531E+08          PRECIPITATION =                  
           STREAMFLOW =                               STREAMFLOW =                  
     GW BOUNDARY FLOW =                         GW BOUNDARY FLOW =                  
                WELLS =                                    WELLS =                  


                                    OUT                                        OUT
                                    ---                                        ---
   EVAPOTRANSPIRATION =        2.9123E+08     EVAPOTRANSPIRATION =          17302.46
           STREAMFLOW =        1.7576E+08             STREAMFLOW =           7330.69
     GW BOUNDARY FLOW =        3774565.25       GW BOUNDARY FLOW =            654.28
                WELLS =                                    WELLS =                  

   INFLOWS - OUTFLOWS =       -5450912.00     INFLOWS - OUTFLOWS =         -25287.43
             --------                                   --------

 TOTAL STORAGE CHANGE =       -5266545.50         STORAGE CHANGE =         -25285.95
       --------------                             --------------
         LAND SURFACE =             19.26           LAND SURFACE =                  
            SOIL ZONE =         170976.92              SOIL ZONE =          -1989.77
     UNSATURATED ZONE =        3033481.25       UNSATURATED ZONE =         -23902.24
       SATURATED ZONE =       -8471025.00         SATURATED ZONE =            606.06

 OVERALL BUDGET ERROR =        -184366.50           BUDGET ERROR =             -1.48


  PERCENT DISCREPANCY =             -0.04    PERCENT DISCREPANCY =             -0.01



1
 SUMMARY VOLUMETRIC BUDGET FOR GSFLOW 
 DATE: 09 03 1996              CUMULATIVE TIME STEP:    5817
 MODFLOW STRESS PERIOD      2     CURRENT TIME STEP:    5817     ITERATIONS:      19

 -----------------------------------------------------------------------------------

   CUMULATIVE VOLUMES               L**3   RATES FOR THIS TIME STEP           L**3/T
   ------------------                      ------------------------

                                     IN                                         IN
                                     --                                         --
        PRECIPITATION =        4.6531E+08          PRECIPITATION =                  
           STREAMFLOW =                               STREAMFLOW =                  
     GW BOUNDARY FLOW =                         GW BOUNDARY FLOW =                  
                WELLS =                                    WELLS =                  


                                    OUT                                        OUT
                                    ---                                        ---
   EVAPOTRANSPIRATION =        2.9135E+08     EVAPOTRANSPIRATION =          14394.94
           STREAMFLOW =        1.7581E+08             STREAMFLOW =           7187.43
     GW BOUNDARY FLOW =        3779143.50       GW BOUNDARY FLOW =            653.82
                WELLS =                                    WELLS =                  

   INFLOWS - OUTFLOWS =       -5626688.00     INFLOWS - OUTFLOWS =         -22236.19
             --------                                   --------

 TOTAL STORAGE CHANGE =       -5442229.50         STORAGE CHANGE =         -22236.52
       --------------                             --------------
         LAND SURFACE =             19.26           LAND SURFACE =                  
            SOIL ZONE =         157082.48              SOIL ZONE =            745.59
     UNSATURATED ZONE =        2870709.00       UNSATURATED ZONE =         -22797.20
       SATURATED ZONE =       -8470041.00         SATURATED ZONE =           -184.91

 OVERALL BUDGET ERROR =        -184458.50           BUDGET ERROR =              0.33


  PERCENT DISCREPANCY =             -0.04    PERCENT DISCREPANCY =              0.00



1
 SUMMARY VOLUMETRIC BUDGET FOR GSFLOW 
 DATE: 09 10 1996              CUMULATIVE TIME STEP:    5824
 MODFLOW STRESS PERIOD      2     CURRENT TIME STEP:    5824     ITERATIONS:      15

 -----------------------------------------------------------------------------------

   CUMULATIVE VOLUMES               L**3   RATES FOR THIS TIME STEP           L**3/T
   ------------------                      ------------------------

                                     IN                                         IN
                                     --                                         --
        PRECIPITATION =        4.6531E+08          PRECIPITATION =                  
           STREAMFLOW =                               STREAMFLOW =                  
     GW BOUNDARY FLOW =                         GW BOUNDARY FLOW =                  
                WELLS =                                    WELLS =                  


                                    OUT                                        OUT
                                    ---                                        ---
   EVAPOTRANSPIRATION =        2.9145E+08     EVAPOTRANSPIRATION =          15223.04
           STREAMFLOW =        1.7586E+08             STREAMFLOW =           7063.21
     GW BOUNDARY FLOW =        3783718.25       GW BOUNDARY FLOW =            653.35
                WELLS =                                    WELLS =                  

   INFLOWS - OUTFLOWS =       -5778752.00     INFLOWS - OUTFLOWS =         -22939.60
             --------                                   --------

 TOTAL STORAGE CHANGE =       -5594294.00         STORAGE CHANGE =         -22953.18
       --------------                             --------------
         LAND SURFACE =             19.26           LAND SURFACE =                  
            SOIL ZONE =         164725.44              SOIL ZONE =           -249.79
     UNSATURATED ZONE =        2715041.50       UNSATURATED ZONE =         -21958.27
       SATURATED ZONE =       -8474082.00         SATURATED ZONE =           -745.12

 OVERALL BUDGET ERROR =        -184458.00           BUDGET ERROR =             13.58


  PERCENT DISCREPANCY =             -0.04    PERCENT DISCREPANCY =              0.06



1
 SUMMARY VOLUMETRIC BUDGET FOR GSFLOW 
 DATE: 09 17 1996              CUMULATIVE TIME STEP:    5831
 MODFLOW STRESS PERIOD      2     CURRENT TIME STEP:    5831     ITERATIONS:      23

 -----------------------------------------------------------------------------------

   CUMULATIVE VOLUMES               L**3   RATES FOR THIS TIME STEP           L**3/T
   ------------------                      ------------------------

                                     IN                                         IN
                                     --                                         --
        PRECIPITATION =        4.6637E+08          PRECIPITATION =                  
           STREAMFLOW =                               STREAMFLOW =                  
     GW BOUNDARY FLOW =                         GW BOUNDARY FLOW =                  
                WELLS =                                    WELLS =                  


                                    OUT                                        OUT
                                    ---                                        ---
   EVAPOTRANSPIRATION =        2.9164E+08     EVAPOTRANSPIRATION =          67792.45
           STREAMFLOW =        1.7593E+08             STREAMFLOW =          13580.41
     GW BOUNDARY FLOW =        3788291.50       GW BOUNDARY FLOW =            653.60
                WELLS =                                    WELLS =                  

   INFLOWS - OUTFLOWS =       -4994816.00     INFLOWS - OUTFLOWS =         -82026.45
             --------                                   --------

 TOTAL STORAGE CHANGE =       -4810345.50         STORAGE CHANGE =         -82027.39
       --------------                             --------------
         LAND SURFACE =             19.26           LAND SURFACE =         -34505.07
            SOIL ZONE =        1105477.50              SOIL ZONE =         -25219.06
     UNSATURATED ZONE =        2565936.50       UNSATURATED ZONE =         -20820.62
       SATURATED ZONE =       -8481781.00         SATURATED ZONE =          -1482.64

 OVERALL BUDGET ERROR =        -184470.50           BUDGET ERROR =              0.94


  PERCENT DISCREPANCY =             -0.04    PERCENT DISCREPANCY =              0.00



1
 SUMMARY VOLUMETRIC BUDGET FOR GSFLOW 
 DATE: 09 24 1996              CUMULATIVE TIME STEP:    5838
 MODFLOW STRESS PERIOD      2     CURRENT TIME STEP:    5838     ITERATIONS:      19

 -----------------------------------------------------------------------------------

   CUMULATIVE VOLUMES               L**3   RATES FOR THIS TIME STEP           L**3/T
   ------------------                      ------------------------

                                     IN                                         IN
                                     --                                         --
        PRECIPITATION =        4.6637E+08          PRECIPITATION =                  
           STREAMFLOW =                               STREAMFLOW =                  
     GW BOUNDARY FLOW =                         GW BOUNDARY FLOW =                  
                WELLS =                                    WELLS =                  


                                    OUT                                        OUT
                                    ---                                        ---
   EVAPOTRANSPIRATION =        2.9216E+08     EVAPOTRANSPIRATION =          56818.68
           STREAMFLOW =        1.7599E+08             STREAMFLOW =           7814.46
     GW BOUNDARY FLOW =        3792863.00       GW BOUNDARY FLOW =            652.74
                WELLS =                                    WELLS =                  

   INFLOWS - OUTFLOWS =       -5581344.00     INFLOWS - OUTFLOWS =         -65285.88
             --------                                   --------

 TOTAL STORAGE CHANGE =       -5396835.00         STORAGE CHANGE =         -65279.42
       --------------                             --------------
         LAND SURFACE =             19.26           LAND SURFACE =                  
            SOIL ZONE =         675251.38              SOIL ZONE =         -43099.21
     UNSATURATED ZONE =        2423540.25       UNSATURATED ZONE =         -19910.80
       SATURATED ZONE =       -8495647.00         SATURATED ZONE =          -2269.41

 OVERALL BUDGET ERROR =        -184509.00           BUDGET ERROR =             -6.46


  PERCENT DISCREPANCY =             -0.04    PERCENT DISCREPANCY =             -0.01



