

                           U.S. Geological Survey
         Coupled Groundwater and Surface-water FLOW model (GSFLOW)
                          Version 1.2.0 08/21/2015

     An integration of the Precipitation-Runoff Modeling System (PRMS)
     and the Modular Groundwater Model (MODFLOW-NWT and MODFLOW-2005)



                         U.S. Geological Survey
               Precipitation-Runoff Modeling System (PRMS)
               Version 4.0.1 03/15/2015 Tag: 633 2015-09-11


The following modules are available:

     Process                   Modules
--------------------------------------------------------------------------
  Basin Definition: basin
    Cascading Flow: cascade
  Time Series Data: obs
   Potet Solar Rad: soltab
  Temperature Dist: temp_1sta, temp_laps, temp_dist2, climate_hru
       Precip Dist: precip_1sta, precip_laps, precip_dist2,
                    climate_hru
Temp & Precip Dist: xyz_dist, ide_dist
    Solar Rad Dist: ccsolrad, ddsolrad, climate_hru
Transpiration Dist: transp_tindex, climate_hru, transp_frost
      Potential ET: potet_hamon, potet_jh, potet_pan, climate_hru,
                    potet_hs, potet_pt, potet_pm
      Interception: intcp
     Snow Dynamics: snowcomp
    Surface Runoff: srunoff_smidx, srunoff_carea
         Soil Zone: soilzone
       Groundwater: gwflow
Streamflow Routing: strmflow, strmflow_in_out, muskingum
    Output Summary: basin_sum, subbasin, map_results, nhru_summary
     Preprocessing: write_climate_hru, frost_date
--------------------------------------------------------------------------
GSFLOW Computation Order     gsflow_prms.f90, version: 7633 2015-09-11 22:17:53Z
Basin Definition             basin.f90, version: 7588 2015-08-18 22:58:42Z
Cascading Flow               cascade.f90, version: 7588 2015-08-18 22:58:42Z
Common States and Fluxes     climateflow.f90, version: 7588 2015-08-18 22:58:42Z
Potential Solar Radiation    soltab.f90, version: 7563 2015-08-04 20:04:22Z
PRMS Set Time Variables      prms_time.f90, version: 7430 2015-06-10 21:09:20Z
Time Series Data             obs.f90, version: 7488 2015-07-16 23:25:44Z
Temperature Distribution     climate_hru.f90, version: 7588 2015-08-18 22:58:42Z
Precipitation Distribution   climate_hru.f90, version: 7588 2015-08-18 22:58:42Z
Solar Radiation Distribution climate_hru.f90, version: 7588 2015-08-18 22:58:42Z
Potential Evapotranspiration climate_hru.f90, version: 7588 2015-08-18 22:58:42Z
Transpiration Distribution   transp_tindex.f90, version: 7117 2015-01-06 00:28:20Z
Canopy Interception          intcp.f90, version: 7588 2015-08-18 22:58:42Z
Snow Dynamics                snowcomp.f90, version: 7563 2015-08-04 20:04:22Z
Surface Runoff               srunoff_smidx.f90, version: 7588 2015-08-18 22:58:42Z
Soil Zone Computations       soilzone.f90, version: 7588 2015-08-18 22:58:42Z
Groundwater                  gwflow.f90, version: 7588 2015-08-18 22:58:42Z
Streamflow Routing           strmflow.f90, version: 6555 2014-07-09 21:53:26Z
Summary                      basin_sum.f90, version: 7588 2015-08-18 22:58:42Z
Output Summary               subbasin.f90, version: 7432 2015-06-10 21:50:54Z

Using Control File: ./prms_climate_hru.control

Writing PRMS Water Budget File: ../output/prms/sagehen_prms.out

Simulation time period: 1980/10/01 - 1996/09/30

