                                  MODFLOW-NWT
      U.S. GEOLOGICAL SURVEY MODULAR FINITE-DIFFERENCE GROUNDWATER-FLOW MODEL
                            VERSION 1.0.7 01/15/2013
                    BASED ON MODFLOW-2005 VERSION 1.9.01 05/01/2012

 LIST FILE: ../output/modflow/sagehen.mfonly.list
                         UNIT   26

 OPENING ../input/modflow/sagehen.bas
 FILE TYPE:BAS6   UNIT    8   STATUS:OLD    
 FORMAT:FORMATTED              ACCESS:SEQUENTIAL          

 OPENING ../input/modflow/sagehen.oc
 FILE TYPE:OC   UNIT    9   STATUS:OLD    
 FORMAT:FORMATTED              ACCESS:SEQUENTIAL          

 OPENING ../input/modflow/sagehen.mf.dis
 FILE TYPE:DIS   UNIT   11   STATUS:OLD    
 FORMAT:FORMATTED              ACCESS:SEQUENTIAL          

 OPENING ../input/modflow/sagehen.mf.lpf
 FILE TYPE:LPF   UNIT   12   STATUS:OLD    
 FORMAT:FORMATTED              ACCESS:SEQUENTIAL          

 OPENING ../input/modflow/sagehen.pcg
 FILE TYPE:PCG   UNIT   13   STATUS:OLD    
 FORMAT:FORMATTED              ACCESS:SEQUENTIAL          

 OPENING ../input/modflow/sagehen.uzf
 FILE TYPE:UZF   UNIT   14   STATUS:OLD    
 FORMAT:FORMATTED              ACCESS:SEQUENTIAL          

 OPENING ../input/modflow/sagehen.sfr
 FILE TYPE:SFR   UNIT   15   STATUS:OLD    
 FORMAT:FORMATTED              ACCESS:SEQUENTIAL          

 OPENING ../input/modflow/sagehen.gag
 FILE TYPE:GAGE   UNIT   16   STATUS:OLD    
 FORMAT:FORMATTED              ACCESS:SEQUENTIAL          

 OPENING ../output/modflow/head_sagehen.out
 FILE TYPE:DATA   UNIT   58   STATUS:UNKNOWN
 FORMAT:FORMATTED              ACCESS:SEQUENTIAL          

 OPENING ../output/modflow/uz1_sagehen.out
 FILE TYPE:DATA   UNIT   65   STATUS:UNKNOWN
 FORMAT:FORMATTED              ACCESS:SEQUENTIAL          

 OPENING ../output/modflow/uz2_sagehen.out
 FILE TYPE:DATA   UNIT   66   STATUS:UNKNOWN
 FORMAT:FORMATTED              ACCESS:SEQUENTIAL          

 OPENING ../output/modflow/uz3_sagehen.out
 FILE TYPE:DATA   UNIT   67   STATUS:UNKNOWN
 FORMAT:FORMATTED              ACCESS:SEQUENTIAL          

 OPENING ../output/modflow/uz4_sagehen.out
 FILE TYPE:DATA   UNIT   68   STATUS:UNKNOWN
 FORMAT:FORMATTED              ACCESS:SEQUENTIAL          

 OPENING ../output/modflow/sagehen_sfrseg13.out
 FILE TYPE:DATA   UNIT   80   STATUS:UNKNOWN
 FORMAT:FORMATTED              ACCESS:SEQUENTIAL          

 OPENING ../output/modflow/sagehen_sfrseg15.out
 FILE TYPE:DATA   UNIT   81   STATUS:UNKNOWN
 FORMAT:FORMATTED              ACCESS:SEQUENTIAL          

 OPENING ../output/modflow/sagehen_sfrseg16.out
 FILE TYPE:DATA   UNIT   82   STATUS:UNKNOWN
 FORMAT:FORMATTED              ACCESS:SEQUENTIAL          

 OPENING ../output/modflow/sagehen_sfrseg17.out
 FILE TYPE:DATA   UNIT   83   STATUS:UNKNOWN
 FORMAT:FORMATTED              ACCESS:SEQUENTIAL          

 BAS -- BASIC PACKAGE, VERSION 1.0.7, 1/15/2013 INPUT READ FROM UNIT    8

 MODFLOW was compiled using mixed precision
 Precision of REAL variables:           6
 Precision of DOUBLE PRECISION variables:          15

 DISCRETIZATION INPUT DATA READ FROM UNIT   11
 #Sagehen Simulation -- Example problem for GSFLOW
 #  (File modified for version 1.1.00 release)
    2 LAYERS        73 ROWS        81 COLUMNS
    1 STRESS PERIOD(S) IN SIMULATION
 MODEL TIME UNIT IS DAYS
 MODEL LENGTH UNIT IS METERS
  Confining bed flag for each layer:
   0   0

                     DELR =   90.0000    

                     DELC =   90.0000    



           TOP ELEVATION OF LAYER 1
 READING ON UNIT   11 WITH FORMAT: (FREE)              

            1           2           3           4           5           6           7           8           9          10
           11          12          13          14          15          16          17          18          19          20
           21          22          23          24          25          26          27          28          29          30
           31          32          33          34          35          36          37          38          39          40
           41          42          43          44          45          46          47          48          49          50
           51          52          53          54          55          56          57          58          59          60
           61          62          63          64          65          66          67          68          69          70
           71          72          73          74          75          76          77          78          79          80
           81
 ........................................................................................................................
   1    0.000       0.000       0.000       0.000       0.000       0.000       0.000       0.000       0.000       0.000    
        0.000       0.000       0.000       0.000       0.000       0.000       0.000       0.000       0.000       0.000    
        0.000       0.000       0.000       0.000       0.000       0.000       0.000       0.000       0.000       0.000    
        0.000       0.000       0.000       0.000       0.000       0.000       0.000       0.000       0.000       0.000    
        0.000       0.000       0.000       0.000       0.000       0.000       0.000       0.000       0.000       0.000    
        0.000       0.000       0.000       0.000       0.000       0.000       0.000       0.000       0.000       0.000    
        0.000       0.000       0.000       2166.       2148.       0.000       0.000       0.000       0.000       0.000    
        0.000       0.000       0.000       0.000       0.000       0.000       0.000       0.000       0.000       0.000    
        0.000    
   2    0.000       0.000       0.000       0.000       0.000       0.000       0.000       0.000       0.000       0.000    
        0.000       0.000       0.000       0.000       0.000       0.000       0.000       0.000       0.000       0.000    
        0.000       0.000       0.000       0.000       0.000       0.000       0.000       0.000       0.000       0.000    
        0.000       0.000       0.000       0.000       0.000       0.000       0.000       0.000       0.000       0.000    
        0.000       0.000       0.000       0.000       0.000       0.000       0.000       0.000       0.000       0.000    
        0.000       0.000       0.000       0.000       0.000       0.000       0.000       0.000       0.000       0.000    
        0.000       0.000       2170.       2158.       2136.       0.000       0.000       0.000       0.000       0.000    
        0.000       0.000       0.000       0.000       0.000       0.000       0.000       0.000       0.000       0.000    
        0.000    
   3    0.000       0.000       0.000       0.000       0.000       0.000       0.000       0.000       0.000       0.000    
        0.000       0.000       0.000       0.000       0.000       0.000       0.000       0.000       0.000       0.000    
        0.000       0.000       0.000       0.000       0.000       0.000       0.000       0.000       0.000       0.000    
        0.000       0.000       0.000       0.000       0.000       0.000       0.000       0.000       0.000       0.000    
        0.000       0.000       0.000       0.000       0.000       0.000       0.000       0.000       0.000       0.000    
        0.000       0.000       0.000       0.000       0.000       0.000       0.000       0.000       0.000       0.000    
        0.000       0.000       2161.       2144.       2124.       0.000       0.000       0.000       0.000       0.000    
        0.000       0.000       0.000       0.000       0.000       0.000       0.000       0.000       0.000       0.000    
        0.000    
   4    0.000       0.000       0.000       0.000       0.000       0.000       0.000       0.000       0.000       0.000    
        0.000       0.000       0.000       0.000       0.000       0.000       0.000       0.000       0.000       0.000    
        0.000       0.000       0.000       0.000       0.000       0.000       0.000       0.000       0.000       0.000    
        0.000       0.000       0.000       0.000       0.000       0.000       0.000       0.000       0.000       0.000    
        0.000       0.000       0.000       0.000       0.000       0.000       0.000       0.000       0.000       0.000    
        0.000       0.000       0.000       0.000       0.000       0.000       0.000       0.000       0.000       0.000    
        0.000       2158.       2152.       2128.       2121.       0.000       0.000       0.000       0.000       0.000    
        0.000       0.000       0.000       0.000       0.000       0.000       0.000       0.000       0.000       0.000    
        0.000    
   5    0.000       0.000       0.000       0.000       0.000       0.000       0.000       0.000       0.000       0.000    
        0.000       0.000       0.000       0.000       0.000       0.000       0.000       0.000       0.000       0.000    
        0.000       0.000       0.000       0.000       0.000       0.000       0.000       0.000       0.000       0.000    
        0.000       0.000       0.000       0.000       0.000       0.000       0.000       0.000       0.000       0.000    
        0.000       0.000       0.000       0.000       0.000       0.000       0.000       0.000       0.000       0.000    
        0.000       0.000       0.000       0.000       0.000       0.000       0.000       0.000       0.000       0.000    
        0.000       2153.       2141.       2122.       2119.       2119.       0.000       0.000       0.000       0.000    
        0.000       0.000       0.000       0.000       0.000       0.000       0.000       0.000       0.000       0.000    
        0.000    
   6    0.000       0.000       0.000       0.000       0.000       0.000       0.000       0.000       0.000       0.000    
        0.000       0.000       0.000       0.000       0.000       0.000       0.000       0.000       0.000       0.000    
        0.000       0.000       0.000       0.000       0.000       0.000       0.000       0.000       0.000       0.000    
        0.000       0.000       0.000       0.000       0.000       0.000       0.000       0.000       0.000       0.000    
        0.000       0.000       0.000       0.000       0.000       0.000       0.000       0.000       0.000       0.000    
        0.000       0.000       0.000       0.000       0.000       0.000       0.000       0.000       0.000       0.000    
        0.000       2149.       2134.       2121.       2119.       2118.       2116.       0.000       0.000       0.000    
        0.000       0.000       0.000       0.000       0.000       0.000       0.000       0.000       0.000       0.000    
        0.000    
   7    0.000       0.000       0.000       0.000       0.000       0.000       0.000       0.000       0.000       0.000    
        0.000       0.000       0.000       0.000       0.000       0.000       0.000       0.000       0.000       0.000    
        0.000       0.000       0.000       0.000       0.000       0.000       0.000       0.000       0.000       0.000    
        0.000       0.000       0.000       0.000       0.000       0.000       0.000       0.000       0.000       0.000    
        0.000       0.000       0.000       0.000       0.000       0.000       0.000       0.000       0.000       0.000    
        0.000       0.000       0.000       0.000       0.000       0.000       0.000       0.000       0.000       0.000    
        2156.       2151.       2136.       2125.       2119.       2115.       2114.       2116.       0.000       0.000    
        0.000       0.000       0.000       0.000       0.000       0.000       0.000       0.000       0.000       0.000    
        0.000    
   8    0.000       0.000       0.000       0.000       0.000       0.000       0.000       0.000       0.000       0.000    
        0.000       0.000       0.000       0.000       0.000       0.000       0.000       0.000       0.000       0.000    
        0.000       0.000       0.000       0.000       0.000       0.000       0.000       0.000       0.000       0.000    
        0.000       0.000       0.000       0.000       0.000       0.000       0.000       0.000       0.000       0.000    
        0.000       0.000       0.000       0.000       0.000       0.000       0.000       0.000       0.000       0.000    
        0.000       0.000       0.000       0.000       0.000       0.000       0.000       0.000       0.000       0.000    
        2160.       2153.       2142.       2130.       2117.       2111.       2112.       2116.       2120.       2123.    
        2125.       0.000       0.000       0.000       0.000       0.000       0.000       0.000       0.000       0.000    
        0.000    
   9    0.000       0.000       0.000       0.000       0.000       0.000       0.000       0.000       0.000       0.000    
        0.000       0.000       0.000       0.000       0.000       0.000       0.000       0.000       0.000       0.000    
        0.000       0.000       0.000       0.000       0.000       0.000       0.000       0.000       0.000       0.000    
        0.000       0.000       0.000       0.000       0.000       0.000       0.000       0.000       0.000       0.000    
        0.000       0.000       0.000       0.000       0.000       0.000       0.000       0.000       2185.       2184.    
        0.000       0.000       0.000       0.000       0.000       0.000       0.000       0.000       2152.       2156.    
        2155.       2146.       2138.       2128.       2114.       2109.       2110.       2114.       2120.       2124.    
        2126.       2122.       2120.       2121.       2123.       0.000       0.000       0.000       0.000       0.000    
        0.000    
  10    0.000       0.000       0.000       0.000       0.000       0.000       0.000       0.000       0.000       0.000    
        0.000       0.000       0.000       0.000       0.000       0.000       0.000       0.000       0.000       0.000    
        0.000       0.000       0.000       0.000       0.000       0.000       0.000       0.000       0.000       0.000    
        0.000       0.000       0.000       0.000       0.000       0.000       0.000       0.000       0.000       0.000    
        0.000       0.000       0.000       0.000       0.000       0.000       0.000       2188.       2185.       2184.    
        2186.       2181.       2172.       0.000       0.000       0.000       2153.       2151.       2149.       2149.    
        2147.       2142.       2133.       2121.       2112.       2107.       2108.       2110.       2120.       2125.    
        2126.       2123.       2118.       2119.       2121.       2123.       0.000       0.000       0.000       0.000    
        0.000    
  11    0.000       0.000       0.000       0.000       0.000       0.000       0.000       0.000       0.000       0.000    
        0.000       0.000       0.000       0.000       0.000       0.000       0.000       0.000       0.000       0.000    
        0.000       0.000       0.000       0.000       0.000       0.000       0.000       0.000       0.000       0.000    
        0.000       0.000       0.000       0.000       0.000       0.000       0.000       0.000       0.000       0.000    
        0.000       0.000       0.000       0.000       0.000       0.000       2194.       2186.       2178.       2179.    
        2176.       2169.       2166.       2165.       2163.       2160.       2156.       2151.       2147.       2144.    
        2142.       2138.       2130.       2118.       2110.       2106.       2106.       2108.       2116.       2123.    
        2125.       2123.       2117.       2112.       2114.       2118.       0.000       0.000       0.000       0.000    
        0.000    
  12    0.000       0.000       0.000       0.000       0.000       0.000       0.000       0.000       0.000       0.000    
        0.000       0.000       0.000       0.000       0.000       0.000       0.000       0.000       0.000       0.000    
        0.000       0.000       0.000       0.000       0.000       0.000       0.000       0.000       0.000       0.000    
        0.000       0.000       0.000       0.000       0.000       0.000       0.000       0.000       0.000       0.000    
        0.000       0.000       0.000       0.000       0.000       0.000       2193.       2182.       2174.       2167.    
        2158.       2156.       2157.       2161.       2162.       2160.       2154.       2148.       2144.       2139.    
        2136.       2136.       2131.       2118.       2110.       2106.       2105.       2106.       2112.       2117.    
        2120.       2119.       2115.       2110.       2108.       2112.       2117.       0.000       0.000       0.000    
        0.000    
  13    0.000       0.000       0.000       0.000       0.000       0.000       0.000       0.000       0.000       0.000    
        0.000       0.000       0.000       0.000       0.000       0.000       0.000       0.000       0.000       0.000    
        0.000       0.000       0.000       0.000       0.000       0.000       0.000       0.000       0.000       0.000    
        0.000       0.000       0.000       0.000       0.000       0.000       0.000       0.000       0.000       0.000    
        0.000       0.000       0.000       0.000       2207.       2197.       2187.       2179.       2171.       2159.    
        2150.       2144.       2145.       2152.       2157.       2157.       2151.       2145.       2140.       2135.    
        2132.       2131.       2127.       2119.       2110.       2107.       2103.       2102.       2107.       2110.    
        2112.       2114.       2112.       2107.       2102.       2109.       2117.       2123.       0.000       0.000    
        0.000    
  14    0.000       0.000       0.000       0.000       0.000       0.000       0.000       0.000       0.000       0.000    
        0.000       0.000       0.000       0.000       0.000       0.000       0.000       0.000       0.000       0.000    
        0.000       0.000       0.000       0.000       0.000       0.000       0.000       0.000       0.000       0.000    
        0.000       0.000       0.000       0.000       0.000       0.000       0.000       0.000       0.000       0.000    
        0.000       2219.       2213.       2209.       2200.       2185.       2179.       2172.       2161.       2156.    
        2151.       2147.       2135.       2140.       2147.       2149.       2147.       2142.       2137.       2132.    
        2129.       2126.       2122.       2117.       2111.       2105.       2100.       2098.       2101.       2104.    
        2107.       2108.       2106.       2100.       2099.       2108.       2117.       2124.       2128.       0.000    
        0.000    
  15    0.000       0.000       0.000       0.000       0.000       0.000       0.000       0.000       0.000       0.000    
        0.000       0.000       0.000       0.000       0.000       0.000       0.000       0.000       0.000       0.000    
        0.000       0.000       0.000       0.000       0.000       0.000       0.000       0.000       0.000       0.000    
        0.000       0.000       0.000       0.000       0.000       0.000       0.000       0.000       0.000       0.000    
        2225.       2218.       2209.       2206.       2191.       2180.       2174.       2167.       2158.       2155.    
        2151.       2148.       2133.       2128.       2132.       2136.       2139.       2138.       2134.       2128.    
        2125.       2121.       2118.       2115.       2111.       2105.       2099.       2094.       2095.       2097.    
        2101.       2102.       2099.       2095.       2095.       2103.       2113.       2121.       2127.       2131.    
        0.000    
  16    0.000       0.000       0.000       0.000       0.000       0.000       0.000       0.000       0.000       0.000    
        0.000       0.000       0.000       0.000       0.000       0.000       0.000       0.000       0.000       0.000    
        0.000       0.000       0.000       0.000       0.000       0.000       0.000       0.000       0.000       0.000    
        0.000       0.000       0.000       0.000       0.000       0.000       0.000       0.000       0.000       2230.    
        2222.       2224.       2226.       2215.       2198.       2188.       2179.       2168.       2158.       2154.    
        2149.       2142.       2131.       2122.       2117.       2121.       2131.       2131.       2127.       2123.    
        2120.       2116.       2113.       2111.       2109.       2105.       2099.       2091.       2091.       2094.    
        2097.       2097.       2092.       2088.       2089.       2097.       2109.       2121.       2126.       2128.    
        0.000    
  17    0.000       0.000       0.000       0.000       0.000       0.000       0.000       0.000       0.000       0.000    
        0.000       0.000       0.000       0.000       0.000       0.000       0.000       0.000       0.000       0.000    
        0.000       0.000       0.000       0.000       0.000       0.000       0.000       0.000       0.000       0.000    
        0.000       0.000       0.000       0.000       0.000       0.000       0.000       0.000       0.000       2235.    
        2240.       2241.       2235.       2220.       2202.       2191.       2181.       2175.       2164.       2155.    
        2149.       2142.       2135.       2126.       2107.       2107.       2121.       2122.       2119.       2116.    
        2112.       2110.       2109.       2107.       2106.       2104.       2100.       2090.       2087.       2090.    
        2092.       2091.       2085.       2082.       2081.       2090.       2106.       2120.       2123.       2123.    
        0.000    
  18    0.000       0.000       0.000       0.000       0.000       0.000       0.000       0.000       0.000       0.000    
        0.000       0.000       0.000       0.000       0.000       0.000       0.000       0.000       0.000       0.000    
        0.000       0.000       0.000       0.000       0.000       0.000       0.000       0.000       0.000       0.000    
        0.000       0.000       0.000       0.000       0.000       0.000       0.000       0.000       0.000       2248.    
        2242.       2233.       2221.       2207.       2193.       2181.       2171.       2165.       2157.       2150.    
        2146.       2140.       2136.       2123.       2100.       2094.       2109.       2113.       2111.       2108.    
        2106.       2105.       2105.       2105.       2103.       2102.       2099.       2090.       2083.       2088.    
        2089.       2088.       2085.       2076.       2075.       2082.       2096.       2110.       2115.       2119.    
        0.000    
  19    0.000       0.000       0.000       0.000       0.000       0.000       0.000       0.000       0.000       0.000    
        0.000       0.000       0.000       0.000       0.000       0.000       0.000       0.000       0.000       0.000    
        0.000       0.000       0.000       0.000       0.000       0.000       0.000       0.000       0.000       0.000    
        0.000       0.000       0.000       0.000       2262.       2252.       2253.       2251.       2243.       2234.    
        2224.       2213.       2203.       2191.       2180.       2170.       2162.       2153.       2143.       2136.    
        2130.       2126.       2124.       2109.       2087.       2086.       2098.       2102.       2101.       2101.    
        2100.       2099.       2099.       2102.       2101.       2100.       2096.       2088.       2080.       2085.    
        2086.       2084.       2081.       2072.       2070.       2076.       2085.       2097.       2107.       2113.    
        2115.    
  20    0.000       0.000       0.000       0.000       0.000       0.000       0.000       0.000       0.000       0.000    
        0.000       0.000       0.000       0.000       0.000       0.000       0.000       0.000       0.000       0.000    
        0.000       0.000       0.000       0.000       0.000       0.000       0.000       0.000       0.000       0.000    
        0.000       0.000       2270.       2256.       2240.       2225.       2228.       2228.       2222.       2213.    
        2204.       2193.       2182.       2172.       2162.       2155.       2150.       2146.       2137.       2124.    
        2112.       2102.       2100.       2090.       2073.       2075.       2085.       2093.       2092.       2093.    
        2094.       2094.       2096.       2099.       2100.       2098.       2091.       2085.       2075.       2077.    
        2078.       2073.       2068.       2065.       2063.       2066.       2074.       2085.       2100.       2108.    
        2112.    
  21    0.000       0.000       0.000       0.000       0.000       0.000       0.000       0.000       0.000       0.000    
        0.000       0.000       0.000       0.000       0.000       0.000       0.000       0.000       0.000       0.000    
        0.000       0.000       0.000       0.000       0.000       0.000       0.000       0.000       0.000       2284.    
        2273.       2256.       2243.       2231.       2213.       2196.       2201.       2202.       2199.       2192.    
        2184.       2174.       2164.       2153.       2145.       2139.       2134.       2129.       2124.       2115.    
        2103.       2086.       2075.       2066.       2060.       2064.       2074.       2082.       2083.       2084.    
        2086.       2090.       2094.       2097.       2097.       2091.       2085.       2078.       2069.       2063.    
        2066.       2062.       2060.       2060.       2058.       2059.       2064.       2075.       2093.       2102.    
        2106.    
  22    0.000       0.000       0.000       0.000       0.000       0.000       0.000       0.000       0.000       0.000    
        0.000       0.000       0.000       0.000       0.000       0.000       0.000       0.000       0.000       0.000    
        0.000       0.000       0.000       0.000       0.000       0.000       2280.       2278.       2273.       2264.    
        2245.       2229.       2218.       2207.       2191.       2173.       2179.       2181.       2178.       2172.    
        2164.       2155.       2145.       2134.       2124.       2119.       2116.       2113.       2108.       2104.    
        2096.       2081.       2065.       2055.       2050.       2055.       2066.       2073.       2074.       2077.    
        2083.       2087.       2091.       2093.       2089.       2084.       2079.       2074.       2065.       2058.    
        2056.       2056.       2057.       2057.       2057.       2057.       2057.       2068.       2084.       2095.    
        2100.    
  23    0.000       0.000       0.000       0.000       0.000       0.000       0.000       0.000       0.000       0.000    
        0.000       0.000       0.000       0.000       0.000       0.000       0.000       0.000       0.000       0.000    
        0.000       0.000       0.000       0.000       2319.       2302.       2278.       2261.       2248.       2234.    
        2216.       2204.       2196.       2187.       2175.       2164.       2164.       2164.       2160.       2153.    
        2145.       2132.       2119.       2110.       2106.       2103.       2101.       2097.       2092.       2089.    
        2088.       2080.       2062.       2048.       2042.       2048.       2056.       2060.       2064.       2072.    
        2080.       2086.       2089.       2089.       2084.       2078.       2075.       2070.       2063.       2055.    
        2052.       2054.       2056.       2058.       2059.       2058.       2057.       2063.       2075.       2090.    
        2096.    
  24    0.000       0.000       0.000       0.000       0.000       0.000       0.000       0.000       0.000       0.000    
        0.000       0.000       0.000       0.000       0.000       0.000       0.000       0.000       0.000       0.000    
        0.000       0.000       2330.       2316.       2300.       2283.       2257.       2236.       2223.       2206.    
        2193.       2185.       2178.       2171.       2163.       2156.       2151.       2149.       2143.       2135.    
        2124.       2111.       2101.       2094.       2090.       2087.       2083.       2079.       2076.       2077.    
        2078.       2072.       2059.       2044.       2036.       2038.       2046.       2049.       2056.       2071.    
        2077.       2082.       2087.       2088.       2080.       2073.       2071.       2067.       2062.       2053.    
        2049.       2052.       2058.       2064.       2069.       2069.       2064.       2065.       2077.       2096.    
        2107.    
  25    0.000       0.000       0.000       0.000       0.000       0.000       0.000       0.000       0.000       0.000    
        0.000       0.000       0.000       0.000       0.000       0.000       0.000       0.000       0.000       0.000    
        2371.       2337.       2311.       2295.       2281.       2265.       2240.       2215.       2196.       2184.    
        2177.       2170.       2163.       2157.       2151.       2147.       2142.       2133.       2128.       2119.    
        2107.       2096.       2087.       2080.       2074.       2070.       2066.       2064.       2064.       2067.    
        2068.       2065.       2054.       2040.       2031.       2028.       2033.       2038.       2049.       2065.    
        2073.       2078.       2083.       2086.       2077.       2071.       2068.       2066.       2060.       2051.    
        2046.       2051.       2057.       2065.       2071.       2075.       2073.       2071.       2080.       2098.    
        0.000    
  26    0.000       0.000       0.000       0.000       0.000       0.000       0.000       0.000       0.000       0.000    
        0.000       0.000       0.000       0.000       0.000       0.000       0.000       0.000       2380.       2373.    
        2353.       2323.       2295.       2282.       2270.       2250.       2226.       2200.       2177.       2168.    
        2163.       2157.       2151.       2145.       2139.       2136.       2133.       2122.       2115.       2107.    
        2096.       2084.       2072.       2066.       2062.       2056.       2053.       2051.       2054.       2057.    
        2059.       2059.       2052.       2043.       2033.       2023.       2022.       2030.       2042.       2058.    
        2067.       2071.       2077.       2079.       2072.       2066.       2065.       2064.       2060.       2048.    
        2046.       2047.       2053.       2063.       2071.       2078.       2082.       2076.       2079.       0.000    
        0.000    
  27    0.000       0.000       0.000       0.000       0.000       0.000       0.000       0.000       0.000       0.000    
        0.000       0.000       0.000       0.000       0.000       0.000       0.000       2370.       2364.       2354.    
        2341.       2313.       2282.       2272.       2259.       2239.       2216.       2191.       2166.       2156.    
        2151.       2146.       2140.       2135.       2130.       2125.       2122.       2111.       2106.       2100.    
        2088.       2072.       2061.       2055.       2050.       2045.       2041.       2040.       2044.       2048.    
        2050.       2052.       2049.       2042.       2032.       2018.       2018.       2025.       2037.       2052.    
        2062.       2067.       2071.       2072.       2065.       2060.       2061.       2062.       2060.       2051.    
        2046.       2045.       2048.       2060.       2073.       2081.       0.000       0.000       0.000       0.000    
        0.000    
  28    0.000       0.000       0.000       0.000       0.000       0.000       0.000       0.000       0.000       0.000    
        0.000       0.000       0.000       0.000       0.000       0.000       2370.       2363.       2351.       2342.    
        2328.       2303.       2273.       2260.       2246.       2227.       2207.       2187.       2165.       2148.    
        2141.       2134.       2130.       2125.       2120.       2117.       2114.       2107.       2100.       2092.    
        2080.       2065.       2053.       2047.       2042.       2037.       2033.       2033.       2036.       2039.    
        2043.       2045.       2043.       2039.       2030.       2018.       2013.       2020.       2032.       2046.    
        2055.       2061.       2063.       2062.       2059.       2055.       2056.       2058.       2058.       2057.    
        2049.       2049.       2044.       2056.       2068.       2082.       0.000       0.000       0.000       0.000    
        0.000    
  29    0.000       0.000       0.000       0.000       0.000       0.000       0.000       0.000       0.000       0.000    
        0.000       2467.       2440.       2419.       2398.       2377.       2365.       2353.       2342.       2331.    
        2318.       2292.       2266.       2248.       2233.       2216.       2201.       2183.       2164.       2148.    
        2137.       2129.       2123.       2117.       2113.       2110.       2106.       2101.       2096.       2082.    
        2070.       2058.       2047.       2040.       2035.       2030.       2027.       2026.       2028.       2031.    
        2035.       2038.       2037.       2033.       2026.       2014.       2008.       2016.       2029.       2039.    
        2046.       2052.       2053.       2053.       2052.       2049.       2050.       2052.       2057.       2057.    
        2052.       2050.       2044.       2050.       2061.       2071.       0.000       0.000       0.000       0.000    
        0.000    
  30    0.000       0.000       0.000       0.000       0.000       0.000       0.000       0.000       0.000       0.000    
        2510.       2464.       2434.       2412.       2391.       2374.       2358.       2344.       2335.       2325.    
        2311.       2285.       2268.       2248.       2227.       2209.       2190.       2175.       2164.       2152.    
        2137.       2128.       2119.       2111.       2105.       2101.       2096.       2090.       2083.       2071.    
        2060.       2052.       2044.       2040.       2038.       2033.       2025.       2022.       2022.       2024.    
        2028.       2031.       2031.       2027.       2020.       2008.       2003.       2015.       2027.       2031.    
        2035.       2041.       2043.       2046.       2046.       2043.       2044.       2047.       2054.       2056.    
        2055.       2052.       2042.       2045.       2052.       2058.       0.000       0.000       0.000       0.000    
        0.000    
  31    0.000       0.000       0.000       0.000       0.000       0.000       0.000       0.000       0.000       2544.    
        2509.       2466.       2438.       2412.       2389.       2370.       2355.       2342.       2333.       2320.    
        2306.       2287.       2270.       2250.       2230.       2214.       2194.       2173.       2162.       2149.    
        2136.       2126.       2119.       2110.       2100.       2094.       2086.       2079.       2073.       2063.    
        2055.       2050.       2054.       2051.       2050.       2044.       2033.       2022.       2018.       2018.    
        2020.       2023.       2026.       2023.       2014.       2001.       1999.       2011.       2021.       2022.    
        2026.       2031.       2036.       2040.       2040.       2036.       2037.       2043.       2052.       2056.    
        2056.       2055.       2038.       2040.       2046.       2049.       0.000       0.000       0.000       0.000    
        0.000    
  32    0.000       0.000       0.000       0.000       0.000       0.000       0.000       0.000       2555.       2543.    
        2519.       2480.       2451.       2418.       2387.       2368.       2355.       2343.       2335.       2325.    
        2309.       2294.       2276.       2253.       2231.       2212.       2192.       2179.       2172.       2157.    
        2141.       2130.       2123.       2115.       2104.       2094.       2087.       2082.       2077.       2067.    
        2058.       2059.       2072.       2075.       2074.       2062.       2040.       2024.       2017.       2013.    
        2010.       2012.       2018.       2016.       2011.       1999.       1994.       1999.       2008.       2010.    
        2017.       2023.       2030.       2035.       2034.       2029.       2032.       2040.       2049.       2054.    
        2050.       2048.       2034.       2036.       2041.       2044.       0.000       0.000       0.000       0.000    
        0.000    
  33    0.000       0.000       0.000       0.000       0.000       0.000       0.000       0.000       2554.       2551.    
        2517.       2481.       2450.       2419.       2388.       2374.       2362.       2353.       2346.       2336.    
        2320.       2301.       2274.       2253.       2232.       2212.       2199.       2191.       2180.       2162.    
        2145.       2134.       2126.       2116.       2108.       2102.       2095.       2088.       2084.       2070.    
        2061.       2067.       2077.       2079.       2078.       2068.       2046.       2027.       2019.       2014.    
        2011.       2004.       2005.       2008.       2005.       1999.       1991.       1991.       1994.       2000.    
        2006.       2014.       2021.       2025.       2024.       2021.       2027.       2037.       2044.       2047.    
        2044.       2042.       2030.       2029.       2037.       2039.       0.000       0.000       0.000       0.000    
        0.000    
  34    0.000       0.000       0.000       0.000       0.000       0.000       2558.       2548.       2550.       2538.    
        2508.       2471.       2442.       2415.       2396.       2386.       2379.       2373.       2367.       2356.    
        2336.       2307.       2276.       2257.       2239.       2221.       2211.       2207.       2195.       2172.    
        2155.       2142.       2130.       2121.       2114.       2107.       2099.       2095.       2089.       2075.    
        2066.       2068.       2077.       2080.       2074.       2060.       2049.       2033.       2023.       2020.    
        2016.       2004.       1994.       1991.       1993.       1991.       1990.       1987.       1986.       1988.    
        1993.       2002.       2008.       2010.       2010.       2012.       2022.       2032.       2039.       2040.    
        2036.       2035.       2026.       2018.       2029.       2034.       0.000       0.000       0.000       0.000    
        0.000    
  35    0.000       0.000       0.000       0.000       0.000       2574.       2555.       2542.       2536.       2524.    
        2491.       2455.       2430.       2409.       2397.       2390.       2382.       2377.       2372.       2367.    
        2348.       2318.       2281.       2260.       2246.       2224.       2211.       2205.       2197.       2177.    
        2161.       2147.       2136.       2128.       2119.       2111.       2104.       2099.       2092.       2077.    
        2070.       2072.       2080.       2079.       2065.       2055.       2045.       2033.       2028.       2026.    
        2015.       2003.       1995.       1990.       1986.       1984.       1989.       1989.       1981.       1981.    
        1983.       1988.       1993.       1996.       1997.       2004.       2014.       2024.       2031.       2032.    
        2030.       2028.       2019.       2011.       2020.       2028.       0.000       0.000       0.000       0.000    
        0.000    
  36    0.000       0.000       0.000       0.000       0.000       2571.       2554.       2536.       2526.       2504.    
        2471.       2440.       2417.       2397.       2387.       2379.       2368.       2359.       2358.       2359.    
        2352.       2330.       2293.       2268.       2248.       2232.       2218.       2197.       2185.       2173.    
        2161.       2151.       2142.       2132.       2121.       2113.       2107.       2103.       2094.       2077.    
        2074.       2080.       2085.       2084.       2066.       2055.       2044.       2037.       2037.       2033.    
        2017.       2005.       1997.       1992.       1987.       1983.       1980.       1979.       1977.       1976.    
        1976.       1978.       1980.       1982.       1989.       1998.       2006.       2013.       2018.       2019.    
        2023.       2019.       2007.       2009.       2020.       2026.       0.000       0.000       0.000       0.000    
        0.000    
  37    0.000       0.000       0.000       0.000       0.000       2571.       2554.       2534.       2514.       2484.    
        2453.       2423.       2402.       2383.       2369.       2359.       2349.       2342.       2339.       2339.    
        2338.       2326.       2298.       2269.       2254.       2249.       2235.       2216.       2200.       2187.    
        2175.       2158.       2144.       2133.       2123.       2117.       2112.       2104.       2092.       2081.    
        2088.       2093.       2093.       2090.       2079.       2061.       2048.       2048.       2051.       2045.    
        2028.       2012.       2000.       1994.       1989.       1985.       1982.       1979.       1975.       1974.    
        1973.       1973.       1973.       1976.       1984.       1991.       1996.       2000.       2004.       2003.    
        2001.       1997.       1995.       2007.       2017.       2023.       0.000       0.000       0.000       0.000    
        0.000    
  38    0.000       0.000       0.000       0.000       0.000       2571.       2554.       2534.       2502.       2471.    
        2438.       2412.       2388.       2367.       2359.       2351.       2344.       2337.       2332.       2326.    
        2318.       2308.       2294.       2288.       2276.       2259.       2241.       2226.       2210.       2197.    
        2181.       2161.       2146.       2137.       2129.       2121.       2114.       2104.       2090.       2094.    
        2105.       2105.       2102.       2096.       2087.       2068.       2055.       2058.       2063.       2055.    
        2037.       2016.       2005.       1998.       1992.       1987.       1985.       1982.       1978.       1974.    
        1972.       1971.       1970.       1973.       1979.       1983.       1986.       1986.       1989.       1988.    
        1984.       1977.       1982.       1995.       2011.       2016.       2018.       0.000       0.000       0.000    
        0.000    
  39    0.000       0.000       0.000       0.000       0.000       2573.       2556.       2525.       2487.       2455.    
        2426.       2405.       2382.       2364.       2359.       2352.       2346.       2341.       2340.       2338.    
        2332.       2326.       2316.       2305.       2285.       2267.       2251.       2235.       2215.       2197.    
        2182.       2163.       2150.       2142.       2133.       2125.       2115.       2102.       2094.       2108.    
        2116.       2113.       2109.       2103.       2090.       2075.       2066.       2068.       2074.       2060.    
        2040.       2024.       2012.       2004.       1998.       1994.       1991.       1987.       1983.       1976.    
        1975.       1973.       1970.       1968.       1968.       1972.       1975.       1973.       1973.       1972.    
        1970.       1968.       1971.       1982.       1999.       2013.       2015.       0.000       0.000       0.000    
        0.000    
  40    0.000       0.000       0.000       0.000       2577.       2567.       2542.       2504.       2475.       2440.    
        2412.       2399.       2388.       2372.       2367.       2361.       2355.       2355.       2356.       2357.    
        2354.       2344.       2328.       2311.       2295.       2277.       2258.       2235.       2213.       2196.    
        2182.       2166.       2153.       2144.       2136.       2126.       2115.       2103.       2103.       2119.    
        2126.       2122.       2117.       2115.       2100.       2082.       2075.       2071.       2078.       2075.    
        2058.       2034.       2020.       2013.       2008.       2004.       1999.       1999.       1995.       1989.    
        1986.       1976.       1974.       1973.       1971.       1965.       1962.       1961.       1960.       1959.    
        1959.       1960.       1963.       1971.       1986.       2003.       2010.       2010.       0.000       0.000    
        0.000    
  41    0.000       0.000       0.000       0.000       2577.       2555.       2522.       2486.       2461.       2427.    
        2402.       2394.       2388.       2385.       2385.       2376.       2374.       2374.       2372.       2371.    
        2367.       2350.       2328.       2311.       2294.       2275.       2255.       2230.       2213.       2200.    
        2187.       2172.       2156.       2144.       2137.       2125.       2114.       2105.       2114.       2132.    
        2141.       2133.       2123.       2121.       2118.       2095.       2082.       2080.       2089.       2088.    
        2076.       2048.       2033.       2027.       2024.       2022.       2017.       2016.       2010.       2011.    
        2003.       1986.       1979.       1981.       1988.       1993.       1987.       1971.       1959.       1957.    
        1953.       1953.       1952.       1958.       1967.       1977.       1985.       1988.       1995.       0.000    
        0.000    
  42    0.000       0.000       0.000       2590.       2572.       2540.       2506.       2472.       2444.       2417.    
        2401.       2397.       2400.       2406.       2407.       2402.       2401.       2392.       2378.       2367.    
        2351.       2336.       2319.       2304.       2287.       2270.       2253.       2231.       2216.       2206.    
        2193.       2178.       2161.       2147.       2137.       2124.       2113.       2109.       2122.       2143.    
        2152.       2145.       2131.       2121.       2119.       2111.       2091.       2093.       2101.       2097.    
        2087.       2069.       2057.       2047.       2046.       2042.       2036.       2032.       2027.       2020.    
        2006.       1992.       1986.       1991.       2001.       2006.       2005.       2001.       1980.       1957.    
        1951.       1947.       1944.       1946.       1951.       1957.       1964.       1966.       1965.       0.000    
        0.000    
  43    0.000       0.000       0.000       2594.       2561.       2522.       2493.       2469.       2441.       2420.    
        2410.       2414.       2418.       2425.       2428.       2427.       2421.       2405.       2374.       2353.    
        2338.       2323.       2310.       2297.       2281.       2266.       2250.       2237.       2225.       2207.    
        2196.       2181.       2165.       2149.       2142.       2136.       2126.       2113.       2120.       2139.    
        2147.       2144.       2137.       2124.       2118.       2113.       2099.       2104.       2110.       2108.    
        2102.       2094.       2083.       2074.       2068.       2063.       2053.       2043.       2032.       2019.    
        2006.       1995.       1993.       2002.       2010.       2013.       2014.       2012.       2000.       1968.    
        1956.       1949.       1944.       1941.       1940.       1942.       1945.       1946.       1942.       1937.    
        0.000    
  44    0.000       0.000       2611.       2583.       2556.       2533.       2505.       2478.       2453.       2434.    
        2428.       2430.       2434.       2443.       2445.       2443.       2437.       2421.       2393.       2367.    
        2344.       2324.       2310.       2297.       2283.       2272.       2257.       2241.       2230.       2215.    
        2199.       2182.       2169.       2156.       2149.       2146.       2143.       2127.       2118.       2129.    
        2138.       2140.       2139.       2131.       2118.       2108.       2102.       2110.       2115.       2120.    
        2120.       2115.       2107.       2100.       2091.       2080.       2067.       2053.       2032.       2020.    
        2011.       2000.       2001.       2011.       2018.       2021.       2020.       2015.       1998.       1976.    
        1961.       1953.       1947.       1942.       1939.       1936.       1935.       1934.       1932.       1928.    
        0.000    
  45    0.000       2631.       2590.       2556.       2537.       2533.       2515.       2491.       2462.       2446.    
        2444.       2443.       2452.       2456.       2458.       2459.       2457.       2441.       2414.       2385.    
        2356.       2333.       2315.       2304.       2288.       2276.       2261.       2242.       2229.       2217.    
        2201.       2184.       2173.       2163.       2156.       2152.       2149.       2138.       2122.       2124.    
        2133.       2140.       2144.       2141.       2128.       2113.       2105.       2110.       2119.       2127.    
        2133.       2135.       2134.       2127.       2115.       2098.       2077.       2058.       2035.       2022.    
        2014.       2006.       2008.       2015.       2025.       2026.       2024.       2014.       1997.       1978.    
        1965.       1955.       1949.       1944.       1941.       1938.       1936.       1934.       1932.       1928.    
        0.000    
  46    0.000       2624.       2572.       2538.       2536.       2535.       2523.       2501.       2480.       2462.    
        2452.       2456.       2466.       2468.       2470.       2473.       2476.       2463.       2431.       2403.    
        2372.       2347.       2327.       2311.       2299.       2286.       2266.       2244.       2227.       2215.    
        2203.       2188.       2175.       2166.       2159.       2154.       2149.       2138.       2126.       2125.    
        2133.       2143.       2150.       2152.       2142.       2125.       2109.       2111.       2125.       2136.    
        2146.       2153.       2157.       2151.       2133.       2113.       2086.       2059.       2039.       2027.    
        2020.       2011.       2012.       2018.       2026.       2029.       2025.       2012.       2000.       1977.    
        1965.       1956.       1950.       1946.       1943.       1943.       1940.       1938.       0.000       0.000    
        0.000    
  47    2649.       2623.       2570.       2541.       2529.       2521.       2521.       2517.       2493.       2473.    
        2473.       2481.       2482.       2481.       2483.       2486.       2489.       2473.       2442.       2415.    
        2387.       2358.       2337.       2321.       2309.       2296.       2272.       2249.       2229.       2212.    
        2202.       2189.       2176.       2167.       2159.       2152.       2145.       2134.       2127.       2128.    
        2136.       2147.       2156.       2161.       2157.       2138.       2117.       2112.       2128.       2143.    
        2158.       2172.       2175.       2164.       2147.       2124.       2092.       2062.       2043.       2033.    
        2027.       2018.       2019.       2022.       2027.       2029.       2020.       2012.       1999.       1982.    
        1971.       1961.       1954.       1950.       1951.       1950.       1948.       1944.       0.000       0.000    
        0.000    
  48    0.000       2631.       2589.       2554.       2537.       2525.       2540.       2536.       2505.       2496.    
        2499.       2504.       2500.       2494.       2496.       2500.       2500.       2484.       2461.       2429.    
        2402.       2371.       2347.       2330.       2315.       2300.       2277.       2254.       2232.       2212.    
        2198.       2187.       2176.       2166.       2158.       2149.       2142.       2133.       2129.       2131.    
        2139.       2149.       2159.       2165.       2167.       2152.       2125.       2115.       2124.       2144.    
        2169.       2185.       2192.       2177.       2159.       2135.       2101.       2072.       2049.       2035.    
        2029.       2026.       2027.       2028.       2032.       2025.       2016.       2008.       1998.       1986.    
        1976.       1962.       1957.       1957.       1964.       1960.       1956.       0.000       0.000       0.000    
        0.000    
  49    0.000       0.000       2618.       2588.       2565.       2552.       2568.       2560.       2543.       2522.    
        2523.       2525.       2521.       2509.       2509.       2513.       2513.       2496.       2475.       2445.    
        2417.       2388.       2358.       2338.       2319.       2303.       2282.       2259.       2236.       2212.    
        2195.       2183.       2173.       2164.       2156.       2147.       2141.       2134.       2132.       2133.    
        2141.       2150.       2161.       2169.       2174.       2163.       2137.       2118.       2120.       2140.    
        2172.       2196.       2207.       2194.       2169.       2145.       2112.       2080.       2054.       2039.    
        2034.       2035.       2036.       2034.       2031.       2023.       2013.       2005.       1995.       1984.    
        1974.       1966.       1963.       1969.       1978.       1974.       0.000       0.000       0.000       0.000    
        0.000    
  50    0.000       0.000       0.000       2622.       2603.       2595.       2591.       2589.       2582.       2559.    
        2553.       2544.       2533.       2526.       2523.       2526.       2523.       2506.       2483.       2453.    
        2426.       2401.       2370.       2347.       2325.       2309.       2287.       2261.       2236.       2210.    
        2197.       2182.       2170.       2161.       2153.       2146.       2141.       2136.       2135.       2142.    
        2152.       2161.       2169.       2178.       2181.       2175.       2150.       2126.       2121.       2136.    
        2170.       2199.       2214.       2205.       2181.       2152.       2120.       2089.       2066.       2049.    
        2042.       2044.       2044.       2040.       2030.       2022.       2013.       2005.       1995.       1984.    
        1976.       1972.       1969.       1974.       1986.       1991.       0.000       0.000       0.000       0.000    
        0.000    
  51    0.000       0.000       0.000       0.000       0.000       0.000       0.000       0.000       2610.       2594.    
        2574.       2557.       2540.       0.000       0.000       2538.       2535.       2516.       2487.       2456.    
        2431.       2408.       2380.       2354.       2331.       2313.       2291.       2264.       2238.       2214.    
        2196.       2182.       2169.       2159.       2153.       2147.       2142.       2138.       2144.       2155.    
        2165.       2175.       2188.       2197.       2199.       2192.       2166.       2138.       2127.       2135.    
        2168.       2199.       2220.       2215.       2192.       2160.       2127.       2099.       2077.       2060.    
        2050.       2052.       2054.       2048.       2033.       2023.       2015.       2007.       1997.       1989.    
        1982.       1977.       1976.       1980.       1990.       1998.       0.000       0.000       0.000       0.000    
        0.000    
  52    0.000       0.000       0.000       0.000       0.000       0.000       0.000       0.000       0.000       0.000    
        0.000       0.000       0.000       0.000       0.000       0.000       2537.       2518.       2488.       2460.    
        2433.       2410.       2387.       2360.       2339.       2318.       2293.       2266.       2240.       2216.    
        2197.       2181.       2168.       2158.       2154.       2149.       2144.       2144.       2153.       2166.    
        2180.       2194.       2209.       2220.       2224.       2211.       2179.       2154.       2143.       2143.    
        2169.       2200.       2221.       2221.       2198.       2166.       2134.       2108.       2085.       2073.    
        2059.       2060.       2065.       2061.       2043.       2028.       2019.       2011.       2002.       1994.    
        1989.       1984.       1985.       1989.       1997.       2007.       0.000       0.000       0.000       0.000    
        0.000    
  53    0.000       0.000       0.000       0.000       0.000       0.000       0.000       0.000       0.000       0.000    
        0.000       0.000       0.000       0.000       0.000       0.000       0.000       2514.       2486.       2459.    
        2432.       2409.       2391.       2374.       2350.       2320.       2293.       2267.       2241.       2217.    
        2199.       2182.       2170.       2159.       2154.       2149.       2148.       2150.       2161.       2174.    
        2193.       2213.       2230.       2241.       2245.       2225.       2192.       2168.       2157.       2154.    
        2171.       2202.       2222.       2225.       2198.       2167.       2138.       2113.       2093.       2081.    
        2070.       2070.       2074.       2072.       2056.       2034.       2022.       2015.       2007.       2001.    
        1995.       1992.       1995.       2000.       2006.       2013.       0.000       0.000       0.000       0.000    
        0.000    
  54    0.000       0.000       0.000       0.000       0.000       0.000       0.000       0.000       0.000       0.000    
        0.000       0.000       0.000       0.000       0.000       0.000       0.000       0.000       2483.       2457.    
        2429.       2406.       2391.       2381.       2350.       2321.       2293.       2269.       2242.       2218.    
        2200.       2182.       2170.       2161.       2155.       2151.       2150.       2155.       2163.       2177.    
        2196.       2219.       2238.       2253.       2258.       2232.       2201.       2181.       2169.       2162.    
        2177.       2204.       2224.       2228.       2200.       2167.       2143.       2118.       2099.       2089.    
        2081.       2080.       2079.       2077.       2066.       2042.       2028.       2021.       2016.       2013.    
        2001.       1998.       2004.       2010.       2013.       2019.       0.000       0.000       0.000       0.000    
        0.000    
  55    0.000       0.000       0.000       0.000       0.000       0.000       0.000       0.000       0.000       0.000    
        0.000       0.000       0.000       0.000       0.000       0.000       0.000       0.000       2481.       2452.    
        2422.       2402.       2388.       2371.       2344.       2321.       2294.       2268.       2242.       2220.    
        2202.       2185.       2172.       2162.       2155.       2152.       2153.       2158.       2165.       2178.    
        2196.       2216.       2236.       2254.       2263.       2244.       2213.       2194.       2181.       2173.    
        2182.       2207.       2229.       2233.       2200.       2172.       2152.       2129.       2107.       2099.    
        2094.       2089.       2085.       2080.       2066.       2048.       2036.       2030.       2029.       2025.    
        2011.       2004.       2013.       2018.       2022.       2027.       0.000       0.000       0.000       0.000    
        0.000    
  56    0.000       0.000       0.000       0.000       0.000       0.000       0.000       0.000       0.000       0.000    
        0.000       0.000       0.000       0.000       0.000       0.000       0.000       0.000       0.000       0.000    
        0.000       2397.       2384.       2366.       2341.       2319.       2293.       2265.       2242.       2221.    
        2204.       2184.       2173.       2163.       2156.       2154.       2155.       2160.       2168.       2181.    
        2199.       2218.       2237.       2256.       2269.       2264.       2230.       2208.       2194.       2185.    
        2191.       2212.       2236.       2236.       2202.       2180.       2161.       2139.       2118.       2110.    
        2105.       2098.       2091.       2087.       2071.       2053.       2044.       2042.       2041.       2036.    
        2022.       2011.       2023.       2031.       2034.       2040.       0.000       0.000       0.000       0.000    
        0.000    
  57    0.000       0.000       0.000       0.000       0.000       0.000       0.000       0.000       0.000       0.000    
        0.000       0.000       0.000       0.000       0.000       0.000       0.000       0.000       0.000       0.000    
        0.000       0.000       2379.       2363.       2340.       2317.       2294.       2264.       2242.       2220.    
        2203.       2185.       2174.       2165.       2158.       2156.       2156.       2162.       2170.       2185.    
        2203.       2222.       2243.       2263.       2277.       2276.       2249.       2224.       2209.       2200.    
        2202.       2220.       2244.       2242.       2209.       2188.       2169.       2149.       2129.       2121.    
        2116.       2109.       2098.       2091.       2078.       2064.       2052.       2055.       2054.       2051.    
        2036.       2023.       2034.       2049.       2051.       2057.       0.000       0.000       0.000       0.000    
        0.000    
  58    0.000       0.000       0.000       0.000       0.000       0.000       0.000       0.000       0.000       0.000    
        0.000       0.000       0.000       0.000       0.000       0.000       0.000       0.000       0.000       0.000    
        0.000       0.000       0.000       2360.       2342.       2317.       2297.       2264.       2242.       2222.    
        2207.       2188.       2175.       2167.       2161.       2158.       2158.       2164.       2173.       2188.    
        2207.       2227.       2249.       2272.       2290.       2286.       2265.       2239.       2225.       2216.    
        2213.       2228.       2254.       2248.       2219.       2199.       2179.       2160.       2142.       2136.    
        2131.       2121.       2106.       2094.       2083.       2071.       2064.       2066.       2068.       2067.    
        2052.       2036.       2043.       2055.       2061.       2064.       0.000       0.000       0.000       0.000    
        0.000    
  59    0.000       0.000       0.000       0.000       0.000       0.000       0.000       0.000       0.000       0.000    
        0.000       0.000       0.000       0.000       0.000       0.000       0.000       0.000       0.000       0.000    
        0.000       0.000       0.000       0.000       0.000       0.000       0.000       0.000       0.000       2220.    
        2208.       2191.       2175.       2167.       2162.       2159.       2161.       2167.       2176.       2191.    
        2210.       2231.       2252.       2277.       2300.       2300.       2277.       2252.       2236.       2228.    
        2226.       2237.       2260.       2253.       2230.       2214.       2194.       2174.       2157.       2151.    
        2146.       2135.       2117.       2101.       2091.       2080.       2074.       2079.       2083.       2083.    
        2063.       2047.       2054.       2061.       2067.       2069.       0.000       0.000       0.000       0.000    
        0.000    
  60    0.000       0.000       0.000       0.000       0.000       0.000       0.000       0.000       0.000       0.000    
        0.000       0.000       0.000       0.000       0.000       0.000       0.000       0.000       0.000       0.000    
        0.000       0.000       0.000       0.000       0.000       0.000       0.000       0.000       0.000       0.000    
        0.000       2193.       2179.       2168.       2164.       2162.       2164.       2169.       2179.       2193.    
        2212.       2233.       2254.       2279.       2307.       2312.       2295.       2266.       2245.       2238.    
        2235.       2243.       2261.       2258.       2243.       2226.       2207.       2189.       2174.       2168.    
        2160.       2148.       2128.       2112.       2100.       2091.       2086.       2089.       2092.       2092.    
        2066.       2059.       2065.       2073.       2074.       2075.       0.000       0.000       0.000       0.000    
        0.000    
  61    0.000       0.000       0.000       0.000       0.000       0.000       0.000       0.000       0.000       0.000    
        0.000       0.000       0.000       0.000       0.000       0.000       0.000       0.000       0.000       0.000    
        0.000       0.000       0.000       0.000       0.000       0.000       0.000       0.000       0.000       0.000    
        0.000       0.000       2181.       2170.       2166.       2164.       2165.       2170.       2180.       2193.    
        2213.       2235.       2256.       2279.       2307.       2320.       2309.       2278.       2258.       2248.    
        2245.       2248.       2263.       2268.       2256.       2239.       2220.       2204.       2193.       2190.    
        2180.       2159.       2139.       2123.       2113.       2101.       2098.       2099.       2095.       2088.    
        2073.       2073.       2075.       2078.       2079.       2080.       0.000       0.000       0.000       0.000    
        0.000    
  62    0.000       0.000       0.000       0.000       0.000       0.000       0.000       0.000       0.000       0.000    
        0.000       0.000       0.000       0.000       0.000       0.000       0.000       0.000       0.000       0.000    
        0.000       0.000       0.000       0.000       0.000       0.000       0.000       0.000       0.000       0.000    
        0.000       0.000       0.000       2174.       2169.       0.000       0.000       0.000       0.000       0.000    
        0.000       0.000       0.000       0.000       0.000       0.000       2321.       2297.       2272.       2260.    
        2254.       2255.       2269.       2276.       2270.       2254.       2235.       2217.       2209.       2210.    
        2198.       2175.       2151.       2135.       2126.       2115.       2112.       2105.       2095.       2085.    
        2081.       2084.       2083.       2083.       2084.       2085.       0.000       0.000       0.000       0.000    
        0.000    
  63    0.000       0.000       0.000       0.000       0.000       0.000       0.000       0.000       0.000       0.000    
        0.000       0.000       0.000       0.000       0.000       0.000       0.000       0.000       0.000       0.000    
        0.000       0.000       0.000       0.000       0.000       0.000       0.000       0.000       0.000       0.000    
        0.000       0.000       0.000       0.000       0.000       0.000       0.000       0.000       0.000       0.000    
        0.000       0.000       0.000       0.000       0.000       0.000       2330.       2315.       2292.       2278.    
        2267.       2264.       2275.       2285.       2285.       2271.       2254.       2237.       2227.       2226.    
        2212.       2187.       2166.       2149.       2136.       2127.       2121.       2106.       2095.       2089.    
        2091.       2091.       2089.       2091.       2094.       2097.       0.000       0.000       0.000       0.000    
        0.000    
  64    0.000       0.000       0.000       0.000       0.000       0.000       0.000       0.000       0.000       0.000    
        0.000       0.000       0.000       0.000       0.000       0.000       0.000       0.000       0.000       0.000    
        0.000       0.000       0.000       0.000       0.000       0.000       0.000       0.000       0.000       0.000    
        0.000       0.000       0.000       0.000       0.000       0.000       0.000       0.000       0.000       0.000    
        0.000       0.000       0.000       0.000       0.000       0.000       0.000       2326.       2314.       2306.    
        2286.       2274.       2280.       2293.       2300.       2291.       2277.       2263.       2249.       2242.    
        2227.       2204.       2181.       2162.       2148.       2131.       2118.       2106.       2099.       2097.    
        2099.       2097.       2097.       2101.       2106.       2110.       0.000       0.000       0.000       0.000    
        0.000    
  65    0.000       0.000       0.000       0.000       0.000       0.000       0.000       0.000       0.000       0.000    
        0.000       0.000       0.000       0.000       0.000       0.000       0.000       0.000       0.000       0.000    
        0.000       0.000       0.000       0.000       0.000       0.000       0.000       0.000       0.000       0.000    
        0.000       0.000       0.000       0.000       0.000       0.000       0.000       0.000       0.000       0.000    
        0.000       0.000       0.000       0.000       0.000       0.000       0.000       0.000       2325.       2321.    
        2301.       2283.       2284.       2296.       2308.       2309.       2297.       2284.       2272.       2261.    
        2244.       2220.       2192.       2170.       2153.       2132.       2118.       2109.       2105.       2105.    
        2105.       2105.       2108.       2113.       2116.       2117.       0.000       0.000       0.000       0.000    
        0.000    
  66    0.000       0.000       0.000       0.000       0.000       0.000       0.000       0.000       0.000       0.000    
        0.000       0.000       0.000       0.000       0.000       0.000       0.000       0.000       0.000       0.000    
        0.000       0.000       0.000       0.000       0.000       0.000       0.000       0.000       0.000       0.000    
        0.000       0.000       0.000       0.000       0.000       0.000       0.000       0.000       0.000       0.000    
        0.000       0.000       0.000       0.000       0.000       0.000       0.000       0.000       0.000       2331.    
        2312.       2296.       2292.       2302.       2317.       2323.       2314.       2301.       2287.       2272.    
        2255.       2229.       2200.       2172.       2154.       2135.       2121.       2113.       2112.       2112.    
        2111.       2113.       2117.       2121.       2123.       2124.       0.000       0.000       0.000       0.000    
        0.000    
  67    0.000       0.000       0.000       0.000       0.000       0.000       0.000       0.000       0.000       0.000    
        0.000       0.000       0.000       0.000       0.000       0.000       0.000       0.000       0.000       0.000    
        0.000       0.000       0.000       0.000       0.000       0.000       0.000       0.000       0.000       0.000    
        0.000       0.000       0.000       0.000       0.000       0.000       0.000       0.000       0.000       0.000    
        0.000       0.000       0.000       0.000       0.000       0.000       0.000       0.000       0.000       2333.    
        2319.       2305.       2298.       2307.       2325.       2335.       2326.       2314.       2297.       2277.    
        2257.       2232.       2202.       2170.       2153.       2135.       2124.       2119.       2118.       2118.    
        2118.       2120.       2124.       2129.       2131.       2132.       0.000       0.000       0.000       0.000    
        0.000    
  68    0.000       0.000       0.000       0.000       0.000       0.000       0.000       0.000       0.000       0.000    
        0.000       0.000       0.000       0.000       0.000       0.000       0.000       0.000       0.000       0.000    
        0.000       0.000       0.000       0.000       0.000       0.000       0.000       0.000       0.000       0.000    
        0.000       0.000       0.000       0.000       0.000       0.000       0.000       0.000       0.000       0.000    
        0.000       0.000       0.000       0.000       0.000       0.000       0.000       0.000       0.000       0.000    
        2322.       2307.       2301.       2307.       2323.       2343.       2336.       2321.       2299.       2277.    
        2257.       2230.       2201.       2170.       2154.       2138.       2132.       2126.       2125.       2124.    
        2122.       2126.       2131.       2136.       2140.       2141.       0.000       0.000       0.000       0.000    
        0.000    
  69    0.000       0.000       0.000       0.000       0.000       0.000       0.000       0.000       0.000       0.000    
        0.000       0.000       0.000       0.000       0.000       0.000       0.000       0.000       0.000       0.000    
        0.000       0.000       0.000       0.000       0.000       0.000       0.000       0.000       0.000       0.000    
        0.000       0.000       0.000       0.000       0.000       0.000       0.000       0.000       0.000       0.000    
        0.000       0.000       0.000       0.000       0.000       0.000       0.000       0.000       0.000       0.000    
        0.000       0.000       0.000       0.000       0.000       0.000       2341.       2323.       2301.       2279.    
        2257.       2228.       2199.       2172.       2157.       2148.       2143.       2136.       2134.       2131.    
        2128.       2131.       2136.       2142.       2148.       2149.       0.000       0.000       0.000       0.000    
        0.000    
  70    0.000       0.000       0.000       0.000       0.000       0.000       0.000       0.000       0.000       0.000    
        0.000       0.000       0.000       0.000       0.000       0.000       0.000       0.000       0.000       0.000    
        0.000       0.000       0.000       0.000       0.000       0.000       0.000       0.000       0.000       0.000    
        0.000       0.000       0.000       0.000       0.000       0.000       0.000       0.000       0.000       0.000    
        0.000       0.000       0.000       0.000       0.000       0.000       0.000       0.000       0.000       0.000    
        0.000       0.000       0.000       0.000       0.000       0.000       2347.       2328.       2305.       2282.    
        2256.       2227.       2201.       2178.       2164.       2156.       2147.       2141.       2136.       2132.    
        2131.       2134.       2139.       2145.       2151.       0.000       0.000       0.000       0.000       0.000    
        0.000    
  71    0.000       0.000       0.000       0.000       0.000       0.000       0.000       0.000       0.000       0.000    
        0.000       0.000       0.000       0.000       0.000       0.000       0.000       0.000       0.000       0.000    
        0.000       0.000       0.000       0.000       0.000       0.000       0.000       0.000       0.000       0.000    
        0.000       0.000       0.000       0.000       0.000       0.000       0.000       0.000       0.000       0.000    
        0.000       0.000       0.000       0.000       0.000       0.000       0.000       0.000       0.000       0.000    
        0.000       0.000       0.000       0.000       0.000       0.000       0.000       2338.       2314.       2287.    
        2260.       2234.       2208.       2180.       0.000       0.000       0.000       0.000       0.000       0.000    
        0.000       0.000       0.000       0.000       2155.       0.000       0.000       0.000       0.000       0.000    
        0.000    
  72    0.000       0.000       0.000       0.000       0.000       0.000       0.000       0.000       0.000       0.000    
        0.000       0.000       0.000       0.000       0.000       0.000       0.000       0.000       0.000       0.000    
        0.000       0.000       0.000       0.000       0.000       0.000       0.000       0.000       0.000       0.000    
        0.000       0.000       0.000       0.000       0.000       0.000       0.000       0.000       0.000       0.000    
        0.000       0.000       0.000       0.000       0.000       0.000       0.000       0.000       0.000       0.000    
        0.000       0.000       0.000       0.000       0.000       0.000       0.000       0.000       2323.       2295.    
        2267.       2240.       0.000       0.000       0.000       0.000       0.000       0.000       0.000       0.000    
        0.000       0.000       0.000       0.000       0.000       0.000       0.000       0.000       0.000       0.000    
        0.000    
  73    0.000       0.000       0.000       0.000       0.000       0.000       0.000       0.000       0.000       0.000    
        0.000       0.000       0.000       0.000       0.000       0.000       0.000       0.000       0.000       0.000    
        0.000       0.000       0.000       0.000       0.000       0.000       0.000       0.000       0.000       0.000    
        0.000       0.000       0.000       0.000       0.000       0.000       0.000       0.000       0.000       0.000    
        0.000       0.000       0.000       0.000       0.000       0.000       0.000       0.000       0.000       0.000    
        0.000       0.000       0.000       0.000       0.000       0.000       0.000       0.000       2329.       2305.    
        2274.       0.000       0.000       0.000       0.000       0.000       0.000       0.000       0.000       0.000    
        0.000       0.000       0.000       0.000       0.000       0.000       0.000       0.000       0.000       0.000    
        0.000    



             MODEL LAYER BOTTOM EL. FOR LAYER   1
 READING ON UNIT   11 WITH FORMAT: (FREE)              

            1           2           3           4           5           6           7           8           9          10
           11          12          13          14          15          16          17          18          19          20
[...]
      2127.00 2118.70 2114.38 2116.89 2119.75 2128.94 2138.74 2140.60 2133.11 2118.83 2099.27 2077.21 2059.75 2047.68 2036.67
      2030.29 2026.93 2026.38 2024.79 2021.31 2016.69 2011.23 2004.92 1994.08 1983.11 1971.65 1962.29 1958.24 1955.24 1954.11
      1954.97 1950.52 -999.00 -999.00 -999.00 -999.00
  49  -999.00 -999.00 2571.79 2564.09 2555.14 2547.24 2541.07 2534.18 2526.51 2519.81 2515.96 2513.43 2510.68 2506.27 2500.60
      2492.89 2479.17 2461.23 2441.96 2419.88 2398.46 2378.68 2357.88 2337.35 2316.80 2297.15 2277.45 2256.44 2235.23 2214.19
      2196.68 2180.70 2167.97 2158.94 2149.05 2142.03 2138.28 2134.62 2132.78 2134.13 2139.43 2143.98 2146.37 2145.86 2141.54
      2133.56 2124.23 2119.04 2119.96 2122.93 2134.02 2147.27 2152.23 2144.53 2129.32 2108.98 2085.79 2067.12 2054.00 2042.42
      2036.74 2034.71 2033.57 2030.82 2025.73 2019.53 2012.59 2004.75 1993.71 1982.95 1973.90 1967.76 1963.73 1963.02 1964.83
      1968.04 -999.00 -999.00 -999.00 -999.00 -999.00
  50  -999.00 -999.00 -999.00 2572.85 2567.39 2561.35 2556.19 2550.73 2546.44 2540.65 2536.32 2532.67 2527.76 2518.80 2511.54
      2504.26 2489.85 2468.59 2448.84 2427.45 2406.09 2386.66 2366.03 2345.57 2324.64 2302.02 2279.23 2258.48 2236.58 2214.13
      2196.93 2180.87 2168.20 2159.39 2150.15 2143.56 2139.92 2136.16 2135.07 2138.29 2144.32 2149.27 2152.48 2152.67 2148.83
      2140.49 2130.65 2124.52 2123.19 2127.32 2139.33 2154.59 2161.18 2154.96 2139.16 2118.30 2094.84 2076.33 2062.71 2050.95
      2044.65 2042.64 2040.91 2036.69 2029.65 2021.85 2013.66 2005.38 1994.50 1984.47 1977.09 1973.09 1969.76 1971.68 1976.07
      1979.97 -999.00 -999.00 -999.00 -999.00 -999.00
  51  -999.00 -999.00 -999.00 -999.00 -999.00 -999.00 -999.00 -999.00 2557.09 2551.53 2546.98 2542.82 2538.89 -999.00 -999.00
      2509.02 2496.83 2474.14 2451.73 2432.09 2411.79 2392.48 2372.30 2351.73 2330.33 2307.96 2282.84 2258.93 2237.91 2215.86
      2197.18 2180.82 2168.12 2159.35 2151.20 2145.28 2141.91 2138.36 2137.87 2143.10 2150.00 2156.97 2162.79 2164.68 2160.87
      2150.68 2138.17 2131.00 2130.90 2134.81 2146.20 2161.31 2169.02 2164.04 2148.48 2127.25 2102.75 2084.33 2073.02 2060.62
      2053.82 2050.90 2048.57 2042.91 2033.71 2024.42 2015.84 2007.45 1997.01 1988.16 1982.10 1979.05 1977.35 1979.86 1985.39
      1990.14 -999.00 -999.00 -999.00 -999.00 -999.00
  52  -999.00 -999.00 -999.00 -999.00 -999.00 -999.00 -999.00 -999.00 -999.00 -999.00 -999.00 -999.00 -999.00 -999.00 -999.00
      -999.00 2495.97 2475.61 2453.59 2434.45 2414.91 2396.24 2376.46 2355.79 2334.12 2311.52 2287.31 2261.62 2238.06 2217.07
      2197.99 2180.84 2168.00 2159.36 2152.32 2147.26 2144.64 2142.97 2144.36 2150.66 2157.81 2167.77 2176.49 2180.44 2177.11
      2165.19 2150.38 2142.79 2143.21 2144.24 2154.50 2168.47 2176.11 2172.10 2156.89 2136.71 2113.70 2094.42 2081.65 2069.77
      2062.53 2059.70 2056.77 2050.19 2039.88 2029.07 2019.61 2011.32 2002.61 1992.67 1987.48 1985.35 1985.76 1988.19 1993.68
      1999.71 -999.00 -999.00 -999.00 -999.00 -999.00
  53  -999.00 -999.00 -999.00 -999.00 -999.00 -999.00 -999.00 -999.00 -999.00 -999.00 -999.00 -999.00 -999.00 -999.00 -999.00
      -999.00 -999.00 2472.77 2452.93 2433.54 2415.43 2397.49 2378.63 2358.27 2335.88 2312.81 2289.23 2263.59 2239.19 2218.14
      2199.28 2181.66 2168.86 2160.29 2153.67 2149.25 2147.67 2147.50 2151.09 2157.78 2165.93 2178.41 2189.79 2195.79 2192.82
      2179.32 2163.93 2157.07 2155.59 2154.88 2163.65 2175.99 2182.65 2178.79 2164.38 2145.64 2123.63 2104.76 2091.07 2079.14
      2071.54 2068.76 2065.34 2058.14 2046.71 2034.92 2024.18 2015.82 2008.05 2000.50 1993.66 1992.46 1993.82 1998.61 2002.85
      2006.06 -999.00 -999.00 -999.00 -999.00 -999.00
  54  -999.00 -999.00 -999.00 -999.00 -999.00 -999.00 -999.00 -999.00 -999.00 -999.00 -999.00 -999.00 -999.00 -999.00 -999.00
      -999.00 -999.00 -999.00 2448.58 2432.61 2413.70 2395.85 2377.85 2358.21 2335.83 2313.22 2290.19 2265.99 2240.35 2218.06
      2200.28 2182.42 2169.78 2161.59 2155.04 2151.24 2150.49 2151.12 2155.86 2163.49 2173.18 2187.21 2200.81 2208.50 2206.17
      2191.99 2176.43 2169.44 2167.05 2164.96 2172.75 2183.82 2189.30 2185.42 2171.88 2153.94 2133.35 2114.44 2099.70 2088.48
      2081.49 2078.07 2073.99 2066.25 2054.32 2041.91 2030.40 2021.90 2013.75 2006.45 2000.87 1997.95 2001.80 2005.82 2009.42
      2012.08 -999.00 -999.00 -999.00 -999.00 -999.00
  55  -999.00 -999.00 -999.00 -999.00 -999.00 -999.00 -999.00 -999.00 -999.00 -999.00 -999.00 -999.00 -999.00 -999.00 -999.00
      -999.00 -999.00 -999.00 2447.36 2433.45 2412.43 2390.37 2374.03 2355.76 2334.73 2312.65 2289.81 2266.22 2240.86 2219.22
      2201.76 2183.97 2171.11 2162.75 2156.05 2152.87 2153.00 2153.97 2159.17 2168.73 2180.00 2194.42 2209.08 2217.82 2216.83
      2203.81 2187.91 2180.35 2177.83 2175.84 2182.88 2192.27 2196.62 2192.58 2179.72 2162.81 2143.75 2124.89 2109.22 2098.45
      2091.65 2087.07 2082.22 2073.92 2061.53 2048.65 2037.89 2030.03 2021.04 2012.33 2006.84 2002.58 2008.02 2012.65 2016.32
      2018.81 -999.00 -999.00 -999.00 -999.00 -999.00
  56  -999.00 -999.00 -999.00 -999.00 -999.00 -999.00 -999.00 -999.00 -999.00 -999.00 -999.00 -999.00 -999.00 -999.00 -999.00
      -999.00 -999.00 -999.00 -999.00 -999.00 -999.00 2381.45 2367.60 2351.20 2332.29 2311.51 2288.57 2265.20 2240.92 2219.86
      2202.52 2184.46 2172.11 2164.04 2157.40 2154.69 2155.03 2156.24 2162.39 2173.65 2185.59 2200.40 2215.72 2225.63 2227.11
      2216.54 2199.77 2190.02 2187.38 2187.65 2192.80 2199.62 2203.78 2200.21 2188.03 2170.88 2153.70 2137.11 2120.17 2108.99
      2101.57 2095.81 2089.22 2081.17 2068.23 2055.09 2045.65 2038.89 2029.92 2020.74 2014.63 2012.03 2017.60 2021.21 2024.51
      2026.90 -999.00 -999.00 -999.00 -999.00 -999.00
  57  -999.00 -999.00 -999.00 -999.00 -999.00 -999.00 -999.00 -999.00 -999.00 -999.00 -999.00 -999.00 -999.00 -999.00 -999.00
      -999.00 -999.00 -999.00 -999.00 -999.00 -999.00 -999.00 2358.89 2345.12 2328.95 2309.84 2287.64 2264.31 2241.83 2219.72
      2201.72 2184.89 2172.98 2165.56 2159.24 2156.54 2156.66 2159.14 2166.55 2177.93 2190.12 2205.62 2221.95 2233.28 2237.20
      2230.04 2214.89 2205.55 2201.46 2200.90 2203.20 2208.59 2212.65 2209.42 2197.75 2181.04 2163.82 2148.50 2131.57 2119.95
      2111.55 2104.82 2097.25 2088.52 2076.56 2063.19 2053.38 2048.42 2040.50 2032.74 2027.00 2025.04 2028.88 2031.35 2034.23
      2036.50 -999.00 -999.00 -999.00 -999.00 -999.00
  58  -999.00 -999.00 -999.00 -999.00 -999.00 -999.00 -999.00 -999.00 -999.00 -999.00 -999.00 -999.00 -999.00 -999.00 -999.00
      -999.00 -999.00 -999.00 -999.00 -999.00 -999.00 -999.00 -999.00 2337.65 2325.90 2308.46 2286.91 2264.08 2241.62 2217.93
      2200.59 2184.80 2173.70 2166.91 2161.23 2158.45 2158.71 2162.08 2169.80 2181.49 2194.03 2210.04 2227.68 2240.60 2247.42
      2243.93 2231.68 2222.80 2217.43 2214.37 2215.77 2219.22 2223.08 2219.85 2209.30 2193.67 2176.04 2160.53 2144.30 2132.08
      2122.31 2114.56 2105.51 2095.46 2084.40 2072.63 2063.77 2058.70 2052.19 2045.32 2041.37 2038.43 2039.73 2041.58 2044.54
      2046.65 -999.00 -999.00 -999.00 -999.00 -999.00
  59  -999.00 -999.00 -999.00 -999.00 -999.00 -999.00 -999.00 -999.00 -999.00 -999.00 -999.00 -999.00 -999.00 -999.00 -999.00
      -999.00 -999.00 -999.00 -999.00 -999.00 -999.00 -999.00 -999.00 -999.00 -999.00 -999.00 -999.00 -999.00 -999.00 2209.86
      2197.72 2181.96 2173.28 2167.43 2162.57 2160.16 2161.04 2164.51 2172.36 2184.76 2197.52 2214.25 2232.54 2246.99 2256.45
      2256.04 2246.33 2236.83 2230.61 2225.03 2227.00 2229.52 2232.14 2228.41 2219.17 2206.35 2190.35 2174.36 2159.47 2146.96
      2135.36 2125.02 2114.04 2102.86 2092.54 2082.01 2074.65 2069.60 2064.58 2057.35 2053.79 2049.75 2049.04 2050.54 2054.45
      2056.84 -999.00 -999.00 -999.00 -999.00 -999.00
  60  -999.00 -999.00 -999.00 -999.00 -999.00 -999.00 -999.00 -999.00 -999.00 -999.00 -999.00 -999.00 -999.00 -999.00 -999.00
      -999.00 -999.00 -999.00 -999.00 -999.00 -999.00 -999.00 -999.00 -999.00 -999.00 -999.00 -999.00 -999.00 -999.00 -999.00
      -999.00 2177.42 2172.37 2168.06 2164.11 2162.04 2162.82 2166.36 2175.72 2188.31 2200.25 2217.16 2235.99 2251.47 2262.79
      2265.66 2258.29 2248.06 2242.95 2236.93 2236.17 2239.69 2240.16 2236.25 2227.95 2216.52 2203.17 2188.17 2173.71 2161.71
      2150.13 2138.21 2125.07 2112.34 2101.72 2092.24 2085.31 2079.59 2075.13 2067.98 2064.38 2061.27 2060.31 2061.80 2065.10
      2066.79 -999.00 -999.00 -999.00 -999.00 -999.00
  61  -999.00 -999.00 -999.00 -999.00 -999.00 -999.00 -999.00 -999.00 -999.00 -999.00 -999.00 -999.00 -999.00 -999.00 -999.00
      -999.00 -999.00 -999.00 -999.00 -999.00 -999.00 -999.00 -999.00 -999.00 -999.00 -999.00 -999.00 -999.00 -999.00 -999.00
      -999.00 -999.00 2171.68 2169.06 2166.13 2163.96 2164.95 2169.31 2178.59 2190.13 2201.71 2218.68 2237.82 2253.87 2266.29
      2272.27 2270.27 2260.42 2253.69 2248.30 2245.13 2248.29 2248.37 2245.18 2237.92 2227.75 2215.84 2203.26 2189.44 2176.64
      2163.26 2150.62 2137.24 2123.96 2113.02 2102.68 2095.45 2089.02 2083.62 2077.32 2072.49 2072.33 2072.46 2073.67 2075.24
      2076.20 -999.00 -999.00 -999.00 -999.00 -999.00
  62  -999.00 -999.00 -999.00 -999.00 -999.00 -999.00 -999.00 -999.00 -999.00 -999.00 -999.00 -999.00 -999.00 -999.00 -999.00
      -999.00 -999.00 -999.00 -999.00 -999.00 -999.00 -999.00 -999.00 -999.00 -999.00 -999.00 -999.00 -999.00 -999.00 -999.00
      -999.00 -999.00 -999.00 2169.58 2168.48 -999.00 -999.00 -999.00 -999.00 -999.00 -999.00 -999.00 -999.00 -999.00 -999.00
      -999.00 2280.61 2272.58 2263.83 2259.26 2254.78 2254.80 2256.71 2254.88 2248.59 2239.17 2228.27 2216.80 2204.96 2191.98
      2177.21 2162.46 2148.49 2135.08 2123.59 2112.16 2102.84 2096.29 2090.99 2085.74 2081.45 2081.74 2081.97 2082.87 2083.95
      2084.70 -999.00 -999.00 -999.00 -999.00 -999.00
  63  -999.00 -999.00 -999.00 -999.00 -999.00 -999.00 -999.00 -999.00 -999.00 -999.00 -999.00 -999.00 -999.00 -999.00 -999.00
      -999.00 -999.00 -999.00 -999.00 -999.00 -999.00 -999.00 -999.00 -999.00 -999.00 -999.00 -999.00 -999.00 -999.00 -999.00
      -999.00 -999.00 -999.00 -999.00 -999.00 -999.00 -999.00 -999.00 -999.00 -999.00 -999.00 -999.00 -999.00 -999.00 -999.00
      -999.00 2288.37 2283.33 2275.30 2269.85 2266.34 2264.24 2266.15 2265.04 2259.77 2250.98 2240.54 2229.50 2218.02 2204.71
      2189.31 2173.25 2158.70 2145.03 2132.28 2119.76 2108.49 2100.89 2095.62 2091.84 2090.46 2090.07 2089.78 2091.04 2092.30
      2092.86 -999.00 -999.00 -999.00 -999.00 -999.00
  64  -999.00 -999.00 -999.00 -999.00 -999.00 -999.00 -999.00 -999.00 -999.00 -999.00 -999.00 -999.00 -999.00 -999.00 -999.00
      -999.00 -999.00 -999.00 -999.00 -999.00 -999.00 -999.00 -999.00 -999.00 -999.00 -999.00 -999.00 -999.00 -999.00 -999.00
      -999.00 -999.00 -999.00 -999.00 -999.00 -999.00 -999.00 -999.00 -999.00 -999.00 -999.00 -999.00 -999.00 -999.00 -999.00
      -999.00 -999.00 2290.12 2285.74 2279.63 2276.41 2274.60 2275.69 2275.19 2271.10 2263.13 2253.04 2242.08 2230.15 2216.14
      2199.93 2182.98 2167.31 2153.08 2139.40 2126.02 2113.74 2105.66 2100.76 2098.36 2098.02 2097.52 2097.72 2099.27 2100.34
      2100.86 -999.00 -999.00 -999.00 -999.00 -999.00
  65  -999.00 -999.00 -999.00 -999.00 -999.00 -999.00 -999.00 -999.00 -999.00 -999.00 -999.00 -999.00 -999.00 -999.00 -999.00
      -999.00 -999.00 -999.00 -999.00 -999.00 -999.00 -999.00 -999.00 -999.00 -999.00 -999.00 -999.00 -999.00 -999.00 -999.00
      -999.00 -999.00 -999.00 -999.00 -999.00 -999.00 -999.00 -999.00 -999.00 -999.00 -999.00 -999.00 -999.00 -999.00 -999.00
      -999.00 -999.00 -999.00 2292.93 2290.03 2284.77 2283.15 2283.97 2284.20 2281.67 2275.12 2265.58 2254.43 2241.91 2227.12
      2209.56 2191.19 2174.34 2159.16 2143.89 2130.63 2119.10 2110.47 2106.57 2105.22 2105.01 2105.23 2106.06 2107.11 2107.79
      2107.82 -999.00 -999.00 -999.00 -999.00 -999.00
  66  -999.00 -999.00 -999.00 -999.00 -999.00 -999.00 -999.00 -999.00 -999.00 -999.00 -999.00 -999.00 -999.00 -999.00 -999.00
      -999.00 -999.00 -999.00 -999.00 -999.00 -999.00 -999.00 -999.00 -999.00 -999.00 -999.00 -999.00 -999.00 -999.00 -999.00
      -999.00 -999.00 -999.00 -999.00 -999.00 -999.00 -999.00 -999.00 -999.00 -999.00 -999.00 -999.00 -999.00 -999.00 -999.00
      -999.00 -999.00 -999.00 -999.00 2300.64 2295.18 2292.21 2291.86 2292.11 2290.16 2285.33 2276.92 2265.83 2252.50 2236.44
      2217.47 2197.81 2179.88 2163.83 2147.84 2133.92 2123.14 2115.72 2112.68 2111.83 2111.48 2112.36 2113.38 2114.11 2114.27
      2114.58 -999.00 -999.00 -999.00 -999.00 -999.00
  67  -999.00 -999.00 -999.00 -999.00 -999.00 -999.00 -999.00 -999.00 -999.00 -999.00 -999.00 -999.00 -999.00 -999.00 -999.00
      -999.00 -999.00 -999.00 -999.00 -999.00 -999.00 -999.00 -999.00 -999.00 -999.00 -999.00 -999.00 -999.00 -999.00 -999.00
      -999.00 -999.00 -999.00 -999.00 -999.00 -999.00 -999.00 -999.00 -999.00 -999.00 -999.00 -999.00 -999.00 -999.00 -999.00
      -999.00 -999.00 -999.00 -999.00 2306.60 2303.23 2299.43 2298.00 2298.65 2298.70 2296.26 2289.29 2278.27 2263.71 2245.96
      2223.39 2201.54 2184.15 2167.50 2151.05 2136.59 2127.35 2121.28 2118.77 2118.04 2117.82 2118.65 2119.52 2120.24 2120.46
      2121.10 -999.00 -999.00 -999.00 -999.00 -999.00
  68  -999.00 -999.00 -999.00 -999.00 -999.00 -999.00 -999.00 -999.00 -999.00 -999.00 -999.00 -999.00 -999.00 -999.00 -999.00
      -999.00 -999.00 -999.00 -999.00 -999.00 -999.00 -999.00 -999.00 -999.00 -999.00 -999.00 -999.00 -999.00 -999.00 -999.00
      -999.00 -999.00 -999.00 -999.00 -999.00 -999.00 -999.00 -999.00 -999.00 -999.00 -999.00 -999.00 -999.00 -999.00 -999.00
      -999.00 -999.00 -999.00 -999.00 -999.00 2305.84 2302.81 2301.13 2302.15 2303.98 2303.83 2298.87 2288.33 2272.94 2253.47
      2229.18 2205.92 2188.15 2170.45 2154.34 2140.98 2133.25 2127.77 2125.17 2123.76 2122.83 2123.63 2124.47 2125.20 2125.84
      2126.04 -999.00 -999.00 -999.00 -999.00 -999.00
  69  -999.00 -999.00 -999.00 -999.00 -999.00 -999.00 -999.00 -999.00 -999.00 -999.00 -999.00 -999.00 -999.00 -999.00 -999.00
      -999.00 -999.00 -999.00 -999.00 -999.00 -999.00 -999.00 -999.00 -999.00 -999.00 -999.00 -999.00 -999.00 -999.00 -999.00
      -999.00 -999.00 -999.00 -999.00 -999.00 -999.00 -999.00 -999.00 -999.00 -999.00 -999.00 -999.00 -999.00 -999.00 -999.00
      -999.00 -999.00 -999.00 -999.00 -999.00 -999.00 -999.00 -999.00 -999.00 -999.00 -999.00 2302.91 2293.02 2277.67 2257.75
      2233.01 2210.41 2192.62 2173.69 2158.56 2148.00 2140.04 2134.21 2130.68 2128.57 2127.46 2127.56 2128.13 2128.90 2129.76
      2129.16 -999.00 -999.00 -999.00 -999.00 -999.00
  70  -999.00 -999.00 -999.00 -999.00 -999.00 -999.00 -999.00 -999.00 -999.00 -999.00 -999.00 -999.00 -999.00 -999.00 -999.00
      -999.00 -999.00 -999.00 -999.00 -999.00 -999.00 -999.00 -999.00 -999.00 -999.00 -999.00 -999.00 -999.00 -999.00 -999.00
      -999.00 -999.00 -999.00 -999.00 -999.00 -999.00 -999.00 -999.00 -999.00 -999.00 -999.00 -999.00 -999.00 -999.00 -999.00
      -999.00 -999.00 -999.00 -999.00 -999.00 -999.00 -999.00 -999.00 -999.00 -999.00 -999.00 2304.85 2294.52 2278.77 2258.75
      2235.76 2214.64 2197.52 2179.52 2163.57 2152.29 2143.87 2137.69 2133.60 2131.16 2129.90 2129.68 2130.18 2131.10 2132.83
      -999.00 -999.00 -999.00 -999.00 -999.00 -999.00
  71  -999.00 -999.00 -999.00 -999.00 -999.00 -999.00 -999.00 -999.00 -999.00 -999.00 -999.00 -999.00 -999.00 -999.00 -999.00
      -999.00 -999.00 -999.00 -999.00 -999.00 -999.00 -999.00 -999.00 -999.00 -999.00 -999.00 -999.00 -999.00 -999.00 -999.00
      -999.00 -999.00 -999.00 -999.00 -999.00 -999.00 -999.00 -999.00 -999.00 -999.00 -999.00 -999.00 -999.00 -999.00 -999.00
      -999.00 -999.00 -999.00 -999.00 -999.00 -999.00 -999.00 -999.00 -999.00 -999.00 -999.00 -999.00 2291.94 2275.79 2256.19
      2240.67 2223.74 2202.29 2185.67 -999.00 -999.00 -999.00 -999.00 -999.00 -999.00 -999.00 -999.00 -999.00 -999.00 2135.44
      -999.00 -999.00 -999.00 -999.00 -999.00 -999.00
  72  -999.00 -999.00 -999.00 -999.00 -999.00 -999.00 -999.00 -999.00 -999.00 -999.00 -999.00 -999.00 -999.00 -999.00 -999.00
      -999.00 -999.00 -999.00 -999.00 -999.00 -999.00 -999.00 -999.00 -999.00 -999.00 -999.00 -999.00 -999.00 -999.00 -999.00
      -999.00 -999.00 -999.00 -999.00 -999.00 -999.00 -999.00 -999.00 -999.00 -999.00 -999.00 -999.00 -999.00 -999.00 -999.00
      -999.00 -999.00 -999.00 -999.00 -999.00 -999.00 -999.00 -999.00 -999.00 -999.00 -999.00 -999.00 -999.00 2272.59 2257.91
      2246.70 2235.94 -999.00 -999.00 -999.00 -999.00 -999.00 -999.00 -999.00 -999.00 -999.00 -999.00 -999.00 -999.00 -999.00
      -999.00 -999.00 -999.00 -999.00 -999.00 -999.00
  73  -999.00 -999.00 -999.00 -999.00 -999.00 -999.00 -999.00 -999.00 -999.00 -999.00 -999.00 -999.00 -999.00 -999.00 -999.00
      -999.00 -999.00 -999.00 -999.00 -999.00 -999.00 -999.00 -999.00 -999.00 -999.00 -999.00 -999.00 -999.00 -999.00 -999.00
      -999.00 -999.00 -999.00 -999.00 -999.00 -999.00 -999.00 -999.00 -999.00 -999.00 -999.00 -999.00 -999.00 -999.00 -999.00
      -999.00 -999.00 -999.00 -999.00 -999.00 -999.00 -999.00 -999.00 -999.00 -999.00 -999.00 -999.00 -999.00 2274.48 2261.44
      2254.19 -999.00 -999.00 -999.00 -999.00 -999.00 -999.00 -999.00 -999.00 -999.00 -999.00 -999.00 -999.00 -999.00 -999.00
      -999.00 -999.00 -999.00 -999.00 -999.00 -999.00

 HEAD WILL BE SAVED ON UNIT   58 AT END OF TIME STEP     1, STRESS PERIOD    1
1
  VOLUMETRIC BUDGET FOR ENTIRE MODEL AT END OF TIME STEP     1, STRESS PERIOD   1
  ---------------------------------------------------------------------------------

     CUMULATIVE VOLUMES      L**3       RATES FOR THIS TIME STEP      L**3/T
     ------------------                 ------------------------

           IN:                                      IN:
           ---                                      ---
             STORAGE =           0.0000               STORAGE =           0.0000
       CONSTANT HEAD =           0.0000         CONSTANT HEAD =           0.0000
        UZF RECHARGE =       23337.3867          UZF RECHARGE =       23337.3867
               GW ET =           0.0000                 GW ET =           0.0000
     SURFACE LEAKAGE =           0.0000       SURFACE LEAKAGE =           0.0000
      STREAM LEAKAGE =        6553.6538        STREAM LEAKAGE =        6553.6538

            TOTAL IN =       29891.0410              TOTAL IN =       29891.0410

          OUT:                                     OUT:
          ----                                     ----
             STORAGE =           0.0000               STORAGE =           0.0000
       CONSTANT HEAD =         648.8577         CONSTANT HEAD =         648.8577
        UZF RECHARGE =           0.0000          UZF RECHARGE =           0.0000
               GW ET =           0.0000                 GW ET =           0.0000
     SURFACE LEAKAGE =       16232.6689       SURFACE LEAKAGE =       16232.6689
      STREAM LEAKAGE =       13010.9824        STREAM LEAKAGE =       13010.9824

           TOTAL OUT =       29892.5098             TOTAL OUT =       29892.5098

            IN - OUT =          -1.4688              IN - OUT =          -1.4688

 PERCENT DISCREPANCY =          -0.00     PERCENT DISCREPANCY =          -0.00






         TIME SUMMARY AT END OF TIME STEP     1 IN STRESS PERIOD    1
                    SECONDS     MINUTES      HOURS       DAYS        YEARS
                    -----------------------------------------------------------
   TIME STEP LENGTH  86400.      1440.0      24.000      1.0000     2.73785E-03
 STRESS PERIOD TIME  86400.      1440.0      24.000      1.0000     2.73785E-03
         TOTAL TIME  86400.      1440.0      24.000      1.0000     2.73785E-03
1

 Run end date and time (yyyy/mm/dd hh:mm:ss): 2013/03/21 11:01:18
 Elapsed run time:  9.949 Seconds

