1
 SUMMARY VOLUMETRIC BUDGET FOR GSFLOW 
 DATE: 10 07 1980              CUMULATIVE TIME STEP:       7
 MODFLOW STRESS PERIOD      2     CURRENT TIME STEP:       7     ITERATIONS:       6

 -----------------------------------------------------------------------------------

   CUMULATIVE VOLUMES               L**3   RATES FOR THIS TIME STEP           L**3/T
   ------------------                      ------------------------

                                     IN                                         IN
                                     --                                         --
        PRECIPITATION =                            PRECIPITATION =                  
           STREAMFLOW =                               STREAMFLOW =                  
     GW BOUNDARY FLOW =                         GW BOUNDARY FLOW =                  


                                    OUT                                        OUT
                                    ---                                        ---
   EVAPOTRANSPIRATION =          66595.41     EVAPOTRANSPIRATION =           9275.85
           STREAMFLOW =          42957.55             STREAMFLOW =           6065.77
     GW BOUNDARY FLOW =           4541.44       GW BOUNDARY FLOW =            648.70

   INFLOWS - OUTFLOWS =        -114094.40     INFLOWS - OUTFLOWS =         -15990.32
             --------                                   --------

 TOTAL STORAGE CHANGE =        -113632.07         STORAGE CHANGE =         -15920.49
       --------------                             --------------
         LAND SURFACE =                             LAND SURFACE =                  
            SOIL ZONE =          43928.58              SOIL ZONE =           6420.87
     UNSATURATED ZONE =        -144777.94       UNSATURATED ZONE =         -20360.52
       SATURATED ZONE =         -12782.71         SATURATED ZONE =          -1980.84

 OVERALL BUDGET ERROR =           -462.33           BUDGET ERROR =            -69.83


  PERCENT DISCREPANCY =             -0.41    PERCENT DISCREPANCY =             -0.44



1
 SUMMARY VOLUMETRIC BUDGET FOR GSFLOW 
 DATE: 10 14 1980              CUMULATIVE TIME STEP:      14
 MODFLOW STRESS PERIOD      2     CURRENT TIME STEP:      14     ITERATIONS:       6

 -----------------------------------------------------------------------------------

   CUMULATIVE VOLUMES               L**3   RATES FOR THIS TIME STEP           L**3/T
   ------------------                      ------------------------

                                     IN                                         IN
                                     --                                         --
        PRECIPITATION =         650779.83          PRECIPITATION =         164754.40
           STREAMFLOW =                               STREAMFLOW =                  
     GW BOUNDARY FLOW =                         GW BOUNDARY FLOW =                  


                                    OUT                                        OUT
                                    ---                                        ---
   EVAPOTRANSPIRATION =         162755.65     EVAPOTRANSPIRATION =          11477.50
           STREAMFLOW =          94355.03             STREAMFLOW =           7660.50
     GW BOUNDARY FLOW =           9082.95       GW BOUNDARY FLOW =            648.93

   INFLOWS - OUTFLOWS =         384586.21     INFLOWS - OUTFLOWS =         144967.47
             --------                                   --------

 TOTAL STORAGE CHANGE =         385563.38         STORAGE CHANGE =         145041.30
       --------------                             --------------
         LAND SURFACE =         183651.29           LAND SURFACE =         130477.12
            SOIL ZONE =         513861.94              SOIL ZONE =          36587.64
     UNSATURATED ZONE =        -284495.74       UNSATURATED ZONE =         -19624.10
       SATURATED ZONE =         -27454.11         SATURATED ZONE =          -2399.36

 OVERALL BUDGET ERROR =           -977.17           BUDGET ERROR =            -73.83


  PERCENT DISCREPANCY =             -0.15    PERCENT DISCREPANCY =             -0.04



1
 SUMMARY VOLUMETRIC BUDGET FOR GSFLOW 
 DATE: 10 21 1980              CUMULATIVE TIME STEP:      21
 MODFLOW STRESS PERIOD      2     CURRENT TIME STEP:      21     ITERATIONS:       6

 -----------------------------------------------------------------------------------

   CUMULATIVE VOLUMES               L**3   RATES FOR THIS TIME STEP           L**3/T
   ------------------                      ------------------------

                                     IN                                         IN
                                     --                                         --
        PRECIPITATION =         733157.03          PRECIPITATION =                  
           STREAMFLOW =                               STREAMFLOW =                  
     GW BOUNDARY FLOW =                         GW BOUNDARY FLOW =                  


                                    OUT                                        OUT
                                    ---                                        ---
   EVAPOTRANSPIRATION =         433036.78     EVAPOTRANSPIRATION =          44096.03
           STREAMFLOW =         144680.08             STREAMFLOW =           6695.67
     GW BOUNDARY FLOW =          13624.58       GW BOUNDARY FLOW =            648.71

   INFLOWS - OUTFLOWS =         141815.59     INFLOWS - OUTFLOWS =         -51440.42
             --------                                   --------

 TOTAL STORAGE CHANGE =         143303.50         STORAGE CHANGE =         -51360.57
       --------------                             --------------
         LAND SURFACE =       -1.7394D-11           LAND SURFACE =                  
            SOIL ZONE =         608357.26              SOIL ZONE =         -29504.94
     UNSATURATED ZONE =        -418646.44       UNSATURATED ZONE =         -18824.93
       SATURATED ZONE =         -46407.32         SATURATED ZONE =          -3030.70

 OVERALL BUDGET ERROR =          -1487.92           BUDGET ERROR =            -79.85


  PERCENT DISCREPANCY =             -0.20    PERCENT DISCREPANCY =             -0.16



1
 SUMMARY VOLUMETRIC BUDGET FOR GSFLOW 
 DATE: 10 28 1980              CUMULATIVE TIME STEP:      28
 MODFLOW STRESS PERIOD      2     CURRENT TIME STEP:      28     ITERATIONS:       6

 -----------------------------------------------------------------------------------

   CUMULATIVE VOLUMES               L**3   RATES FOR THIS TIME STEP           L**3/T
   ------------------                      ------------------------

                                     IN                                         IN
                                     --                                         --
        PRECIPITATION =        1070903.53          PRECIPITATION =                  
           STREAMFLOW =                               STREAMFLOW =                  
     GW BOUNDARY FLOW =                         GW BOUNDARY FLOW =                  


                                    OUT                                        OUT
                                    ---                                        ---
   EVAPOTRANSPIRATION =         623847.42     EVAPOTRANSPIRATION =          24687.24
           STREAMFLOW =         197498.10             STREAMFLOW =           7778.20
     GW BOUNDARY FLOW =          18165.58       GW BOUNDARY FLOW =            648.77

   INFLOWS - OUTFLOWS =         231392.43     INFLOWS - OUTFLOWS =         -33114.22
             --------                                   --------

 TOTAL STORAGE CHANGE =         233462.18         STORAGE CHANGE =         -33027.55
       --------------                             --------------
         LAND SURFACE =          20524.24           LAND SURFACE =         -29854.70
            SOIL ZONE =         829254.20              SOIL ZONE =          18320.24
     UNSATURATED ZONE =        -547291.79       UNSATURATED ZONE =         -18004.60
       SATURATED ZONE =         -69024.47         SATURATED ZONE =          -3488.49

 OVERALL BUDGET ERROR =          -2069.75           BUDGET ERROR =            -86.67


  PERCENT DISCREPANCY =             -0.19    PERCENT DISCREPANCY =             -0.26



1
 SUMMARY VOLUMETRIC BUDGET FOR GSFLOW 
 DATE: 11 04 1980              CUMULATIVE TIME STEP:      35
 MODFLOW STRESS PERIOD      2     CURRENT TIME STEP:      35     ITERATIONS:       6

 -----------------------------------------------------------------------------------

   CUMULATIVE VOLUMES               L**3   RATES FOR THIS TIME STEP           L**3/T
   ------------------                      ------------------------

                                     IN                                         IN
                                     --                                         --
        PRECIPITATION =        1070903.53          PRECIPITATION =                  
           STREAMFLOW =                               STREAMFLOW =                  
     GW BOUNDARY FLOW =                         GW BOUNDARY FLOW =                  


                                    OUT                                        OUT
                                    ---                                        ---
   EVAPOTRANSPIRATION =         962106.49     EVAPOTRANSPIRATION =          43297.96
           STREAMFLOW =         246907.10             STREAMFLOW =           6483.64
     GW BOUNDARY FLOW =          22706.14       GW BOUNDARY FLOW =            648.56

   INFLOWS - OUTFLOWS =        -160816.21     INFLOWS - OUTFLOWS =         -50430.16
             --------                                   --------

 TOTAL STORAGE CHANGE =        -158122.87         STORAGE CHANGE =         -50335.37
       --------------                             --------------
         LAND SURFACE =        3.1122D-12           LAND SURFACE =                  
            SOIL ZONE =         609077.85              SOIL ZONE =         -28796.55
     UNSATURATED ZONE =        -670840.05       UNSATURATED ZONE =         -17369.24
       SATURATED ZONE =         -96360.67         SATURATED ZONE =          -4169.58

 OVERALL BUDGET ERROR =          -2693.34           BUDGET ERROR =            -94.79


  PERCENT DISCREPANCY =             -0.22    PERCENT DISCREPANCY =             -0.19



1
 SUMMARY VOLUMETRIC BUDGET FOR GSFLOW 
 DATE: 11 11 1980              CUMULATIVE TIME STEP:      42
 MODFLOW STRESS PERIOD      2     CURRENT TIME STEP:      42     ITERATIONS:       8

 -----------------------------------------------------------------------------------

   CUMULATIVE VOLUMES               L**3   RATES FOR THIS TIME STEP           L**3/T
   ------------------                      ------------------------

                                     IN                                         IN
                                     --                                         --
        PRECIPITATION =        1573762.54          PRECIPITATION =         255182.19
           STREAMFLOW =                               STREAMFLOW =                  
     GW BOUNDARY FLOW =                         GW BOUNDARY FLOW =                  


                                    OUT                                        OUT
                                    ---                                        ---
   EVAPOTRANSPIRATION =        1194409.97     EVAPOTRANSPIRATION =          17062.61
           STREAMFLOW =         300440.14             STREAMFLOW =          10582.85
     GW BOUNDARY FLOW =          27246.42       GW BOUNDARY FLOW =            648.80

   INFLOWS - OUTFLOWS =          51666.01     INFLOWS - OUTFLOWS =         226887.93
             --------                                   --------

 TOTAL STORAGE CHANGE =          54956.44         STORAGE CHANGE =         226942.35
       --------------                             --------------
         LAND SURFACE =          76836.68           LAND SURFACE =          76836.68
            SOIL ZONE =         893625.10              SOIL ZONE =         170609.73
     UNSATURATED ZONE =        -789263.82       UNSATURATED ZONE =         -16444.94
       SATURATED ZONE =        -126241.52         SATURATED ZONE =          -4059.12

 OVERALL BUDGET ERROR =          -3290.43           BUDGET ERROR =            -54.42


  PERCENT DISCREPANCY =             -0.21    PERCENT DISCREPANCY =             -0.02



1
 SUMMARY VOLUMETRIC BUDGET FOR GSFLOW 
 DATE: 11 18 1980              CUMULATIVE TIME STEP:      49
 MODFLOW STRESS PERIOD      2     CURRENT TIME STEP:      49     ITERATIONS:       6

 -----------------------------------------------------------------------------------

   CUMULATIVE VOLUMES               L**3   RATES FOR THIS TIME STEP           L**3/T
   ------------------                      ------------------------

                                     IN                                         IN
                                     --                                         --
        PRECIPITATION =        1573762.54          PRECIPITATION =                  
           STREAMFLOW =                               STREAMFLOW =                  
     GW BOUNDARY FLOW =                         GW BOUNDARY FLOW =                  


                                    OUT                                        OUT
                                    ---                                        ---
   EVAPOTRANSPIRATION =        1291421.46     EVAPOTRANSPIRATION =          23202.05
           STREAMFLOW =         362266.97             STREAMFLOW =           9063.82
     GW BOUNDARY FLOW =          31788.16       GW BOUNDARY FLOW =            648.84

   INFLOWS - OUTFLOWS =        -111714.05     INFLOWS - OUTFLOWS =         -32914.71
             --------                                   --------

 TOTAL STORAGE CHANGE =        -107834.70         STORAGE CHANGE =         -32818.11
       --------------                             --------------
         LAND SURFACE =           5214.84           LAND SURFACE =          -7686.44
            SOIL ZONE =         948907.06              SOIL ZONE =          -4300.21
     UNSATURATED ZONE =        -903063.89       UNSATURATED ZONE =         -16025.17
       SATURATED ZONE =        -158892.71         SATURATED ZONE =          -4806.29

 OVERALL BUDGET ERROR =          -3879.35           BUDGET ERROR =            -96.60


  PERCENT DISCREPANCY =             -0.23    PERCENT DISCREPANCY =             -0.29



1
 SUMMARY VOLUMETRIC BUDGET FOR GSFLOW 
 DATE: 11 25 1980              CUMULATIVE TIME STEP:      56
 MODFLOW STRESS PERIOD      2     CURRENT TIME STEP:      56     ITERATIONS:       7

 -----------------------------------------------------------------------------------

   CUMULATIVE VOLUMES               L**3   RATES FOR THIS TIME STEP           L**3/T
   ------------------                      ------------------------

                                     IN                                         IN
                                     --                                         --
        PRECIPITATION =        1648816.13          PRECIPITATION =                  
           STREAMFLOW =                               STREAMFLOW =                  
     GW BOUNDARY FLOW =                         GW BOUNDARY FLOW =                  


                                    OUT                                        OUT
                                    ---                                        ---
   EVAPOTRANSPIRATION =        1380681.01     EVAPOTRANSPIRATION =           9277.87
           STREAMFLOW =         424753.62             STREAMFLOW =           9119.10
     GW BOUNDARY FLOW =          36329.99       GW BOUNDARY FLOW =            648.84

   INFLOWS - OUTFLOWS =        -192948.49     INFLOWS - OUTFLOWS =         -19045.81
             --------                                   --------

 TOTAL STORAGE CHANGE =        -188443.56         STORAGE CHANGE =         -18972.49
       --------------                             --------------
         LAND SURFACE =          53014.08           LAND SURFACE =          -9258.02
            SOIL ZONE =         966744.44              SOIL ZONE =          11140.43
     UNSATURATED ZONE =       -1012722.79       UNSATURATED ZONE =         -15406.32
       SATURATED ZONE =        -195479.29         SATURATED ZONE =          -5448.58

 OVERALL BUDGET ERROR =          -4504.92           BUDGET ERROR =            -73.32


  PERCENT DISCREPANCY =             -0.24    PERCENT DISCREPANCY =             -0.39



1
 SUMMARY VOLUMETRIC BUDGET FOR GSFLOW 
 DATE: 12 02 1980              CUMULATIVE TIME STEP:      63
 MODFLOW STRESS PERIOD      2     CURRENT TIME STEP:      63     ITERATIONS:       7

 -----------------------------------------------------------------------------------

   CUMULATIVE VOLUMES               L**3   RATES FOR THIS TIME STEP           L**3/T
   ------------------                      ------------------------

                                     IN                                         IN
                                     --                                         --
        PRECIPITATION =        2076621.55          PRECIPITATION =                  
           STREAMFLOW =                               STREAMFLOW =                  
     GW BOUNDARY FLOW =                         GW BOUNDARY FLOW =                  


                                    OUT                                        OUT
                                    ---                                        ---
   EVAPOTRANSPIRATION =        1591294.92     EVAPOTRANSPIRATION =          35187.84
           STREAMFLOW =         499315.60             STREAMFLOW =          13033.40
     GW BOUNDARY FLOW =          40872.80       GW BOUNDARY FLOW =            649.21

   INFLOWS - OUTFLOWS =         -54861.77     INFLOWS - OUTFLOWS =         -48870.45
             --------                                   --------

 TOTAL STORAGE CHANGE =         -49773.11         STORAGE CHANGE =         -48800.73
       --------------                             --------------
         LAND SURFACE =         139391.41           LAND SURFACE =         -82011.29
            SOIL ZONE =        1159350.66              SOIL ZONE =          51669.01
     UNSATURATED ZONE =       -1115385.10       UNSATURATED ZONE =         -13511.72
       SATURATED ZONE =        -233130.08         SATURATED ZONE =          -4946.72

 OVERALL BUDGET ERROR =          -5088.67           BUDGET ERROR =            -69.73


  PERCENT DISCREPANCY =             -0.24    PERCENT DISCREPANCY =             -0.14



1
 SUMMARY VOLUMETRIC BUDGET FOR GSFLOW 
 DATE: 12 09 1980              CUMULATIVE TIME STEP:      70
 MODFLOW STRESS PERIOD      2     CURRENT TIME STEP:      70     ITERATIONS:       7

 -----------------------------------------------------------------------------------

   CUMULATIVE VOLUMES               L**3   RATES FOR THIS TIME STEP           L**3/T
   ------------------                      ------------------------

                                     IN                                         IN
                                     --                                         --
        PRECIPITATION =        4284363.63          PRECIPITATION =                  
           STREAMFLOW =                               STREAMFLOW =                  
     GW BOUNDARY FLOW =                         GW BOUNDARY FLOW =                  


                                    OUT                                        OUT
                                    ---                                        ---
   EVAPOTRANSPIRATION =        1617856.88     EVAPOTRANSPIRATION =           4181.54
           STREAMFLOW =         584874.37             STREAMFLOW =          12676.50
     GW BOUNDARY FLOW =          45418.06       GW BOUNDARY FLOW =            649.42

   INFLOWS - OUTFLOWS =        2036214.32     INFLOWS - OUTFLOWS =         -17507.46
             --------                                   --------

 TOTAL STORAGE CHANGE =        2041795.61         STORAGE CHANGE =         -17439.30
       --------------                             --------------
         LAND SURFACE =        2318907.17           LAND SURFACE =          -4181.54
            SOIL ZONE =        1210281.94              SOIL ZONE =           6923.61
     UNSATURATED ZONE =       -1214535.36       UNSATURATED ZONE =         -14245.93
       SATURATED ZONE =        -272858.14         SATURATED ZONE =          -5935.45

 OVERALL BUDGET ERROR =          -5581.29           BUDGET ERROR =            -68.15


  PERCENT DISCREPANCY =             -0.13    PERCENT DISCREPANCY =             -0.39



1
 SUMMARY VOLUMETRIC BUDGET FOR GSFLOW 
 DATE: 12 16 1980              CUMULATIVE TIME STEP:      77
 MODFLOW STRESS PERIOD      2     CURRENT TIME STEP:      77     ITERATIONS:       7

 -----------------------------------------------------------------------------------

   CUMULATIVE VOLUMES               L**3   RATES FOR THIS TIME STEP           L**3/T
   ------------------                      ------------------------

                                     IN                                         IN
                                     --                                         --
        PRECIPITATION =        4284363.63          PRECIPITATION =                  
           STREAMFLOW =                               STREAMFLOW =                  
     GW BOUNDARY FLOW =                         GW BOUNDARY FLOW =                  


                                    OUT                                        OUT
                                    ---                                        ---
   EVAPOTRANSPIRATION =        1769235.95     EVAPOTRANSPIRATION =          35256.64
           STREAMFLOW =         692799.14             STREAMFLOW =          23187.31
     GW BOUNDARY FLOW =          49965.11       GW BOUNDARY FLOW =            650.03

   INFLOWS - OUTFLOWS =        1772363.43     INFLOWS - OUTFLOWS =         -59093.98
             --------                                   --------

 TOTAL STORAGE CHANGE =        1778446.25         STORAGE CHANGE =         -59024.77
       --------------                             --------------
         LAND SURFACE =        1970410.41           LAND SURFACE =        -143420.49
            SOIL ZONE =        1426432.56              SOIL ZONE =          98367.62
     UNSATURATED ZONE =       -1305166.02       UNSATURATED ZONE =          -9466.43
       SATURATED ZONE =        -313230.70         SATURATED ZONE =          -4505.47

 OVERALL BUDGET ERROR =          -6082.82           BUDGET ERROR =            -69.21


  PERCENT DISCREPANCY =             -0.14    PERCENT DISCREPANCY =             -0.12



1
 SUMMARY VOLUMETRIC BUDGET FOR GSFLOW 
 DATE: 12 23 1980              CUMULATIVE TIME STEP:      84
 MODFLOW STRESS PERIOD      2     CURRENT TIME STEP:      84     ITERATIONS:      10

 -----------------------------------------------------------------------------------

   CUMULATIVE VOLUMES               L**3   RATES FOR THIS TIME STEP           L**3/T
   ------------------                      ------------------------

                                     IN                                         IN
                                     --                                         --
        PRECIPITATION =        4516757.54          PRECIPITATION =                  
           STREAMFLOW =                               STREAMFLOW =                  
     GW BOUNDARY FLOW =                         GW BOUNDARY FLOW =                  


                                    OUT                                        OUT
                                    ---                                        ---
   EVAPOTRANSPIRATION =        1976390.20     EVAPOTRANSPIRATION =          34597.08
           STREAMFLOW =         924517.61             STREAMFLOW =          32187.04
     GW BOUNDARY FLOW =          54525.40       GW BOUNDARY FLOW =            652.06

   INFLOWS - OUTFLOWS =        1561324.32     INFLOWS - OUTFLOWS =         -67436.18
             --------                                   --------

 TOTAL STORAGE CHANGE =        1567722.54         STORAGE CHANGE =         -67401.43
       --------------                             --------------
         LAND SURFACE =        1253601.65           LAND SURFACE =         -63160.64
            SOIL ZONE =        2003698.52              SOIL ZONE =           5754.74
     UNSATURATED ZONE =       -1349050.96       UNSATURATED ZONE =          -5712.74
       SATURATED ZONE =        -340526.68         SATURATED ZONE =          -4282.79

 OVERALL BUDGET ERROR =          -6398.21           BUDGET ERROR =            -34.75


  PERCENT DISCREPANCY =             -0.14    PERCENT DISCREPANCY =             -0.05



1
 SUMMARY VOLUMETRIC BUDGET FOR GSFLOW 
 DATE: 12 30 1980              CUMULATIVE TIME STEP:      91
 MODFLOW STRESS PERIOD      2     CURRENT TIME STEP:      91     ITERATIONS:      11

 -----------------------------------------------------------------------------------

   CUMULATIVE VOLUMES               L**3   RATES FOR THIS TIME STEP           L**3/T
   ------------------                      ------------------------

                                     IN                                         IN
                                     --                                         --
        PRECIPITATION =        4516757.54          PRECIPITATION =                  
           STREAMFLOW =                               STREAMFLOW =                  
     GW BOUNDARY FLOW =                         GW BOUNDARY FLOW =                  


                                    OUT                                        OUT
                                    ---                                        ---
   EVAPOTRANSPIRATION =        2321597.62     EVAPOTRANSPIRATION =          45425.99
           STREAMFLOW =        1184019.10             STREAMFLOW =          27342.84
     GW BOUNDARY FLOW =          59093.66       GW BOUNDARY FLOW =            652.58

   INFLOWS - OUTFLOWS =         952047.16     INFLOWS - OUTFLOWS =         -73421.42
             --------                                   --------

 TOTAL STORAGE CHANGE =         958613.28         STORAGE CHANGE =         -73398.85
       --------------                             --------------
         LAND SURFACE =         428170.27           LAND SURFACE =         -40847.65
            SOIL ZONE =        2245128.58              SOIL ZONE =         -25595.00
     UNSATURATED ZONE =       -1350501.51       UNSATURATED ZONE =          -2766.36
       SATURATED ZONE =        -364184.05         SATURATED ZONE =          -4189.84

 OVERALL BUDGET ERROR =          -6566.12           BUDGET ERROR =            -22.57


  PERCENT DISCREPANCY =             -0.15    PERCENT DISCREPANCY =             -0.03



1
 SUMMARY VOLUMETRIC BUDGET FOR GSFLOW 
 DATE: 01 06 1981              CUMULATIVE TIME STEP:      98
 MODFLOW STRESS PERIOD      2     CURRENT TIME STEP:      98     ITERATIONS:       8

 -----------------------------------------------------------------------------------

   CUMULATIVE VOLUMES               L**3   RATES FOR THIS TIME STEP           L**3/T
   ------------------                      ------------------------

                                     IN                                         IN
                                     --                                         --
        PRECIPITATION =        5004445.43          PRECIPITATION =                  
           STREAMFLOW =                               STREAMFLOW =                  
     GW BOUNDARY FLOW =                         GW BOUNDARY FLOW =                  


                                    OUT                                        OUT
                                    ---                                        ---
   EVAPOTRANSPIRATION =        2541550.28     EVAPOTRANSPIRATION =          21274.99
           STREAMFLOW =        1327969.44             STREAMFLOW =          19654.78
     GW BOUNDARY FLOW =          63654.31       GW BOUNDARY FLOW =            651.04

   INFLOWS - OUTFLOWS =        1071271.41     INFLOWS - OUTFLOWS =         -41580.80
             --------                                   --------

 TOTAL STORAGE CHANGE =        1078023.97         STORAGE CHANGE =         -41545.70
       --------------                             --------------
         LAND SURFACE =         686156.85           LAND SURFACE =         -29019.52
            SOIL ZONE =        2205961.38              SOIL ZONE =           3863.70
     UNSATURATED ZONE =       -1411618.30       UNSATURATED ZONE =         -10573.52
       SATURATED ZONE =        -402475.95         SATURATED ZONE =          -5816.38

 OVERALL BUDGET ERROR =          -6752.56           BUDGET ERROR =            -35.10


  PERCENT DISCREPANCY =             -0.13    PERCENT DISCREPANCY =             -0.08



1
 SUMMARY VOLUMETRIC BUDGET FOR GSFLOW 
 DATE: 01 13 1981              CUMULATIVE TIME STEP:     105
 MODFLOW STRESS PERIOD      2     CURRENT TIME STEP:     105     ITERATIONS:       7

 -----------------------------------------------------------------------------------

   CUMULATIVE VOLUMES               L**3   RATES FOR THIS TIME STEP           L**3/T
   ------------------                      ------------------------

                                     IN                                         IN
                                     --                                         --
        PRECIPITATION =        5004445.43          PRECIPITATION =                  
           STREAMFLOW =                               STREAMFLOW =                  
     GW BOUNDARY FLOW =                         GW BOUNDARY FLOW =                  


                                    OUT                                        OUT
                                    ---                                        ---
   EVAPOTRANSPIRATION =        2747071.30     EVAPOTRANSPIRATION =          43317.92
           STREAMFLOW =        1478610.40             STREAMFLOW =          20398.79
     GW BOUNDARY FLOW =          68211.12       GW BOUNDARY FLOW =            650.87

   INFLOWS - OUTFLOWS =         710552.61     INFLOWS - OUTFLOWS =         -64367.58
             --------                                   --------

 TOTAL STORAGE CHANGE =         717628.80         STORAGE CHANGE =         -64306.74
       --------------                             --------------
         LAND SURFACE =         425947.44           LAND SURFACE =         -35966.44
            SOIL ZONE =        2202908.49              SOIL ZONE =         -14995.17
     UNSATURATED ZONE =       -1467345.85       UNSATURATED ZONE =          -7176.32
       SATURATED ZONE =        -443881.28         SATURATED ZONE =          -6168.81

 OVERALL BUDGET ERROR =          -7076.19           BUDGET ERROR =            -60.84


  PERCENT DISCREPANCY =             -0.14    PERCENT DISCREPANCY =             -0.09



1
 SUMMARY VOLUMETRIC BUDGET FOR GSFLOW 
 DATE: 01 20 1981              CUMULATIVE TIME STEP:     112
 MODFLOW STRESS PERIOD      2     CURRENT TIME STEP:     112     ITERATIONS:      13

 -----------------------------------------------------------------------------------

   CUMULATIVE VOLUMES               L**3   RATES FOR THIS TIME STEP           L**3/T
   ------------------                      ------------------------

                                     IN                                         IN
                                     --                                         --
        PRECIPITATION =        5170466.84          PRECIPITATION =          41505.35
           STREAMFLOW =                               STREAMFLOW =                  
     GW BOUNDARY FLOW =                         GW BOUNDARY FLOW =                  


                                    OUT                                        OUT
                                    ---                                        ---
   EVAPOTRANSPIRATION =        3046164.10     EVAPOTRANSPIRATION =          55041.39
           STREAMFLOW =        1609487.52             STREAMFLOW =          17592.67
     GW BOUNDARY FLOW =          72765.11       GW BOUNDARY FLOW =            650.42

   INFLOWS - OUTFLOWS =         442050.11     INFLOWS - OUTFLOWS =         -31779.13
             --------                                   --------

 TOTAL STORAGE CHANGE =         449441.68         STORAGE CHANGE =         -31751.24
       --------------                             --------------
         LAND SURFACE =         307725.69           LAND SURFACE =          10592.11
            SOIL ZONE =        2133272.98              SOIL ZONE =         -32601.55
     UNSATURATED ZONE =       -1501356.29       UNSATURATED ZONE =          -3323.85
       SATURATED ZONE =        -490200.70         SATURATED ZONE =          -6417.94

 OVERALL BUDGET ERROR =          -7391.57           BUDGET ERROR =            -27.89


  PERCENT DISCREPANCY =             -0.14    PERCENT DISCREPANCY =             -0.04



1
 SUMMARY VOLUMETRIC BUDGET FOR GSFLOW 
 DATE: 01 27 1981              CUMULATIVE TIME STEP:     119
 MODFLOW STRESS PERIOD      2     CURRENT TIME STEP:     119     ITERATIONS:      10

 -----------------------------------------------------------------------------------

   CUMULATIVE VOLUMES               L**3   RATES FOR THIS TIME STEP           L**3/T
   ------------------                      ------------------------

                                     IN                                         IN
                                     --                                         --
        PRECIPITATION =        8646540.08          PRECIPITATION =        2936503.63
           STREAMFLOW =                               STREAMFLOW =                  
     GW BOUNDARY FLOW =                         GW BOUNDARY FLOW =                  


                                    OUT                                        OUT
                                    ---                                        ---
   EVAPOTRANSPIRATION =        3273699.91     EVAPOTRANSPIRATION =          12594.32
           STREAMFLOW =        1735682.33             STREAMFLOW =          17313.53
     GW BOUNDARY FLOW =          77317.38       GW BOUNDARY FLOW =            650.23

   INFLOWS - OUTFLOWS =        3559840.45     INFLOWS - OUTFLOWS =        2905945.56
             --------                                   --------

 TOTAL STORAGE CHANGE =        3567438.79         STORAGE CHANGE =        2905960.59
       --------------                             --------------
         LAND SURFACE =        3468066.85           LAND SURFACE =        2923909.40
            SOIL ZONE =        2163044.25              SOIL ZONE =          -3003.43
     UNSATURATED ZONE =       -1524886.38       UNSATURATED ZONE =          -7762.49
       SATURATED ZONE =        -538785.92         SATURATED ZONE =          -7182.88

 OVERALL BUDGET ERROR =          -7598.34           BUDGET ERROR =            -15.04


  PERCENT DISCREPANCY =             -0.09    PERCENT DISCREPANCY =             -0.00



1
 SUMMARY VOLUMETRIC BUDGET FOR GSFLOW 
 DATE: 02 03 1981              CUMULATIVE TIME STEP:     126
 MODFLOW STRESS PERIOD      2     CURRENT TIME STEP:     126     ITERATIONS:       8

 -----------------------------------------------------------------------------------

   CUMULATIVE VOLUMES               L**3   RATES FOR THIS TIME STEP           L**3/T
   ------------------                      ------------------------

                                     IN                                         IN
                                     --                                         --
        PRECIPITATION =        1.1739D+07          PRECIPITATION =                  
           STREAMFLOW =                               STREAMFLOW =                  
     GW BOUNDARY FLOW =                         GW BOUNDARY FLOW =                  


                                    OUT                                        OUT
                                    ---                                        ---
   EVAPOTRANSPIRATION =        3311043.54     EVAPOTRANSPIRATION =           8129.77
           STREAMFLOW =        1857794.24             STREAMFLOW =          17642.46
     GW BOUNDARY FLOW =          81868.69       GW BOUNDARY FLOW =            650.20

   INFLOWS - OUTFLOWS =        6487982.30     INFLOWS - OUTFLOWS =         -26422.42
             --------                                   --------

 TOTAL STORAGE CHANGE =        6495897.31         STORAGE CHANGE =         -26373.49
       --------------                             --------------
         LAND SURFACE =        6522871.92           LAND SURFACE =          -8129.77
            SOIL ZONE =        2163778.89              SOIL ZONE =            945.97
     UNSATURATED ZONE =       -1598301.95       UNSATURATED ZONE =         -11271.99
       SATURATED ZONE =        -592451.56         SATURATED ZONE =          -7917.71

 OVERALL BUDGET ERROR =          -7915.00           BUDGET ERROR =            -48.93


  PERCENT DISCREPANCY =             -0.07    PERCENT DISCREPANCY =             -0.19



1
 SUMMARY VOLUMETRIC BUDGET FOR GSFLOW 
 DATE: 02 10 1981              CUMULATIVE TIME STEP:     133
 MODFLOW STRESS PERIOD      2     CURRENT TIME STEP:     133     ITERATIONS:       7

 -----------------------------------------------------------------------------------

   CUMULATIVE VOLUMES               L**3   RATES FOR THIS TIME STEP           L**3/T
   ------------------                      ------------------------

                                     IN                                         IN
                                     --                                         --
        PRECIPITATION =        1.1838D+07          PRECIPITATION =                  
           STREAMFLOW =                               STREAMFLOW =                  
     GW BOUNDARY FLOW =                         GW BOUNDARY FLOW =                  


                                    OUT                                        OUT
                                    ---                                        ---
   EVAPOTRANSPIRATION =        3444849.02     EVAPOTRANSPIRATION =          34655.68
           STREAMFLOW =        1982434.27             STREAMFLOW =          17886.96
     GW BOUNDARY FLOW =          86420.18       GW BOUNDARY FLOW =            650.21

   INFLOWS - OUTFLOWS =        6324549.80     INFLOWS - OUTFLOWS =         -53192.86
             --------                                   --------

 TOTAL STORAGE CHANGE =        6332816.91         STORAGE CHANGE =         -53124.93
       --------------                             --------------
         LAND SURFACE =        6488630.94           LAND SURFACE =         -34655.68
            SOIL ZONE =        2169557.52              SOIL ZONE =            720.96
     UNSATURATED ZONE =       -1674755.17       UNSATURATED ZONE =         -10637.96
       SATURATED ZONE =        -650616.38         SATURATED ZONE =          -8552.24

 OVERALL BUDGET ERROR =          -8267.11           BUDGET ERROR =            -67.93


  PERCENT DISCREPANCY =             -0.07    PERCENT DISCREPANCY =             -0.13



1
 SUMMARY VOLUMETRIC BUDGET FOR GSFLOW 
 DATE: 02 17 1981              CUMULATIVE TIME STEP:     140
 MODFLOW STRESS PERIOD      2     CURRENT TIME STEP:     140     ITERATIONS:      15

 -----------------------------------------------------------------------------------

   CUMULATIVE VOLUMES               L**3   RATES FOR THIS TIME STEP           L**3/T
   ------------------                      ------------------------

                                     IN                                         IN
                                     --                                         --
        PRECIPITATION =        1.2765D+07          PRECIPITATION =          68929.28
           STREAMFLOW =                               STREAMFLOW =                  
     GW BOUNDARY FLOW =                         GW BOUNDARY FLOW =                  


                                    OUT                                        OUT
                                    ---                                        ---
   EVAPOTRANSPIRATION =        3789599.78     EVAPOTRANSPIRATION =          68831.31
           STREAMFLOW =        2512540.75             STREAMFLOW =         127277.92
     GW BOUNDARY FLOW =          90993.23       GW BOUNDARY FLOW =            656.81

   INFLOWS - OUTFLOWS =        6371835.34     INFLOWS - OUTFLOWS =        -127836.76
             --------                                   --------

 TOTAL STORAGE CHANGE =        6380392.64         STORAGE CHANGE =        -127820.92
       --------------                             --------------
         LAND SURFACE =        5516053.06           LAND SURFACE =        -293545.88
            SOIL ZONE =        2967221.98              SOIL ZONE =          82625.96
     UNSATURATED ZONE =       -1433541.47       UNSATURATED ZONE =          80707.58
       SATURATED ZONE =        -669340.93         SATURATED ZONE =           2391.41

 OVERALL BUDGET ERROR =          -8557.30           BUDGET ERROR =            -15.84


  PERCENT DISCREPANCY =             -0.07    PERCENT DISCREPANCY =             -0.01



1
 SUMMARY VOLUMETRIC BUDGET FOR GSFLOW 
 DATE: 02 24 1981              CUMULATIVE TIME STEP:     147
 MODFLOW STRESS PERIOD      2     CURRENT TIME STEP:     147     ITERATIONS:      14

 -----------------------------------------------------------------------------------

   CUMULATIVE VOLUMES               L**3   RATES FOR THIS TIME STEP           L**3/T
   ------------------                      ------------------------

                                     IN                                         IN
                                     --                                         --
        PRECIPITATION =        1.3179D+07          PRECIPITATION =         344646.37
           STREAMFLOW =                               STREAMFLOW =                  
     GW BOUNDARY FLOW =                         GW BOUNDARY FLOW =                  


                                    OUT                                        OUT
                                    ---                                        ---
   EVAPOTRANSPIRATION =        4142029.29     EVAPOTRANSPIRATION =          19833.49
           STREAMFLOW =        3123593.68             STREAMFLOW =          55682.72
     GW BOUNDARY FLOW =          95589.82       GW BOUNDARY FLOW =            655.72

   INFLOWS - OUTFLOWS =        5817331.96     INFLOWS - OUTFLOWS =         268474.43
             --------                                   --------

 TOTAL STORAGE CHANGE =        5825847.39         STORAGE CHANGE =         268469.95
       --------------                             --------------
         LAND SURFACE =        4788811.12           LAND SURFACE =         299264.46
            SOIL ZONE =        2721599.16              SOIL ZONE =         -66962.94
     UNSATURATED ZONE =       -1041589.65       UNSATURATED ZONE =          32919.58
       SATURATED ZONE =        -642973.23         SATURATED ZONE =           3248.84

 OVERALL BUDGET ERROR =          -8515.43           BUDGET ERROR =              4.48


  PERCENT DISCREPANCY =             -0.06    PERCENT DISCREPANCY =              0.00



1
 SUMMARY VOLUMETRIC BUDGET FOR GSFLOW 
 DATE: 03 03 1981              CUMULATIVE TIME STEP:     154
 MODFLOW STRESS PERIOD      2     CURRENT TIME STEP:     154     ITERATIONS:      11

 -----------------------------------------------------------------------------------

   CUMULATIVE VOLUMES               L**3   RATES FOR THIS TIME STEP           L**3/T
   ------------------                      ------------------------

                                     IN                                         IN
                                     --                                         --
        PRECIPITATION =        1.3447D+07          PRECIPITATION =                  
           STREAMFLOW =                               STREAMFLOW =                  
     GW BOUNDARY FLOW =                         GW BOUNDARY FLOW =                  


                                    OUT                                        OUT
                                    ---                                        ---
   EVAPOTRANSPIRATION =        4304664.34     EVAPOTRANSPIRATION =          44522.60
           STREAMFLOW =        3355430.54             STREAMFLOW =          28240.13
     GW BOUNDARY FLOW =         100164.36       GW BOUNDARY FLOW =            652.42

   INFLOWS - OUTFLOWS =        5686343.80     INFLOWS - OUTFLOWS =         -73415.14
             --------                                   --------

 TOTAL STORAGE CHANGE =        5694757.43         STORAGE CHANGE =         -73424.54
       --------------                             --------------
         LAND SURFACE =        4870034.11           LAND SURFACE =         -66318.31
            SOIL ZONE =        2493281.05              SOIL ZONE =           2909.41
     UNSATURATED ZONE =       -1024917.53       UNSATURATED ZONE =          -8236.55
       SATURATED ZONE =        -643640.20         SATURATED ZONE =          -1779.09

 OVERALL BUDGET ERROR =          -8413.62           BUDGET ERROR =              9.40


  PERCENT DISCREPANCY =             -0.06    PERCENT DISCREPANCY =              0.01



1
 SUMMARY VOLUMETRIC BUDGET FOR GSFLOW 
 DATE: 03 10 1981              CUMULATIVE TIME STEP:     161
 MODFLOW STRESS PERIOD      2     CURRENT TIME STEP:     161     ITERATIONS:      12

 -----------------------------------------------------------------------------------

   CUMULATIVE VOLUMES               L**3   RATES FOR THIS TIME STEP           L**3/T
   ------------------                      ------------------------

                                     IN                                         IN
                                     --                                         --
        PRECIPITATION =        1.3493D+07          PRECIPITATION =                  
           STREAMFLOW =                               STREAMFLOW =                  
     GW BOUNDARY FLOW =                         GW BOUNDARY FLOW =                  


                                    OUT                                        OUT
                                    ---                                        ---
   EVAPOTRANSPIRATION =        4623670.66     EVAPOTRANSPIRATION =          63940.61
           STREAMFLOW =        3607516.29             STREAMFLOW =          48507.42
     GW BOUNDARY FLOW =         104731.76       GW BOUNDARY FLOW =            653.28

   INFLOWS - OUTFLOWS =        5157022.44     INFLOWS - OUTFLOWS =        -113101.31
             --------                                   --------

 TOTAL STORAGE CHANGE =        5165365.79         STORAGE CHANGE =        -113097.42
       --------------                             --------------
         LAND SURFACE =        4166691.04           LAND SURFACE =        -174424.22
            SOIL ZONE =        2633612.08              SOIL ZONE =          36704.92
     UNSATURATED ZONE =        -983082.13       UNSATURATED ZONE =          24143.99
       SATURATED ZONE =        -651855.20         SATURATED ZONE =            477.88

 OVERALL BUDGET ERROR =          -8343.34           BUDGET ERROR =             -3.90


  PERCENT DISCREPANCY =             -0.06    PERCENT DISCREPANCY =             -0.00



1
 SUMMARY VOLUMETRIC BUDGET FOR GSFLOW 
 DATE: 03 17 1981              CUMULATIVE TIME STEP:     168
 MODFLOW STRESS PERIOD      2     CURRENT TIME STEP:     168     ITERATIONS:       9

 -----------------------------------------------------------------------------------

   CUMULATIVE VOLUMES               L**3   RATES FOR THIS TIME STEP           L**3/T
   ------------------                      ------------------------

                                     IN                                         IN
                                     --                                         --
        PRECIPITATION =        1.3744D+07          PRECIPITATION =                  
           STREAMFLOW =                               STREAMFLOW =                  
     GW BOUNDARY FLOW =                         GW BOUNDARY FLOW =                  


                                    OUT                                        OUT
                                    ---                                        ---
   EVAPOTRANSPIRATION =        4980215.71     EVAPOTRANSPIRATION =          39557.80
           STREAMFLOW =        3853768.70             STREAMFLOW =          24673.24
     GW BOUNDARY FLOW =         109301.57       GW BOUNDARY FLOW =            652.16

   INFLOWS - OUTFLOWS =        4801204.90     INFLOWS - OUTFLOWS =         -64883.20
             --------                                   --------

 TOTAL STORAGE CHANGE =        4809452.68         STORAGE CHANGE =         -64880.69
       --------------                             --------------
         LAND SURFACE =        3974209.27           LAND SURFACE =         -39206.69
            SOIL ZONE =        2446805.49              SOIL ZONE =          -6306.43
     UNSATURATED ZONE =        -949499.96       UNSATURATED ZONE =         -15798.94
       SATURATED ZONE =        -662062.11         SATURATED ZONE =          -3568.62

 OVERALL BUDGET ERROR =          -8247.78           BUDGET ERROR =             -2.51


  PERCENT DISCREPANCY =             -0.06    PERCENT DISCREPANCY =             -0.00



1
 SUMMARY VOLUMETRIC BUDGET FOR GSFLOW 
 DATE: 03 24 1981              CUMULATIVE TIME STEP:     175
 MODFLOW STRESS PERIOD      2     CURRENT TIME STEP:     175     ITERATIONS:      10

 -----------------------------------------------------------------------------------

   CUMULATIVE VOLUMES               L**3   RATES FOR THIS TIME STEP           L**3/T
   ------------------                      ------------------------

                                     IN                                         IN
                                     --                                         --
        PRECIPITATION =        1.4367D+07          PRECIPITATION =                  
           STREAMFLOW =                               STREAMFLOW =                  
     GW BOUNDARY FLOW =                         GW BOUNDARY FLOW =                  


                                    OUT                                        OUT
                                    ---                                        ---
   EVAPOTRANSPIRATION =        5333273.18     EVAPOTRANSPIRATION =          85696.12
           STREAMFLOW =        4028306.49             STREAMFLOW =          27036.96
     GW BOUNDARY FLOW =         113862.66       GW BOUNDARY FLOW =            651.48

   INFLOWS - OUTFLOWS =        4891303.19     INFLOWS - OUTFLOWS =        -113384.57
             --------                                   --------

 TOTAL STORAGE CHANGE =        4899583.80         STORAGE CHANGE =        -113381.80
       --------------                             --------------
         LAND SURFACE =        4272856.05           LAND SURFACE =         -76624.30
            SOIL ZONE =        2347141.70              SOIL ZONE =         -28393.46
     UNSATURATED ZONE =       -1028354.62       UNSATURATED ZONE =          -3995.23
       SATURATED ZONE =        -692059.32         SATURATED ZONE =          -4368.81

 OVERALL BUDGET ERROR =          -8280.61           BUDGET ERROR =             -2.77


  PERCENT DISCREPANCY =             -0.06    PERCENT DISCREPANCY =             -0.00



1
 SUMMARY VOLUMETRIC BUDGET FOR GSFLOW 
 DATE: 03 31 1981              CUMULATIVE TIME STEP:     182
 MODFLOW STRESS PERIOD      2     CURRENT TIME STEP:     182     ITERATIONS:      11

 -----------------------------------------------------------------------------------

   CUMULATIVE VOLUMES               L**3   RATES FOR THIS TIME STEP           L**3/T
   ------------------                      ------------------------

                                     IN                                         IN
                                     --                                         --
        PRECIPITATION =        1.5777D+07          PRECIPITATION =                  
           STREAMFLOW =                               STREAMFLOW =                  
     GW BOUNDARY FLOW =                         GW BOUNDARY FLOW =                  


                                    OUT                                        OUT
                                    ---                                        ---
   EVAPOTRANSPIRATION =        5758783.13     EVAPOTRANSPIRATION =          55419.53
           STREAMFLOW =        4507971.35             STREAMFLOW =          36321.64
     GW BOUNDARY FLOW =         118443.30       GW BOUNDARY FLOW =            653.41

   INFLOWS - OUTFLOWS =        5391550.21     INFLOWS - OUTFLOWS =         -92394.58
             --------                                   --------

 TOTAL STORAGE CHANGE =        5399785.97         STORAGE CHANGE =         -92410.03
       --------------                             --------------
         LAND SURFACE =        4384801.12           LAND SURFACE =         -59744.51
            SOIL ZONE =        2528339.35              SOIL ZONE =         -33785.22
     UNSATURATED ZONE =        -828305.06       UNSATURATED ZONE =           1743.94
       SATURATED ZONE =        -685049.44         SATURATED ZONE =           -624.23

 OVERALL BUDGET ERROR =          -8235.76           BUDGET ERROR =             15.45


  PERCENT DISCREPANCY =             -0.05    PERCENT DISCREPANCY =              0.02



1
 SUMMARY VOLUMETRIC BUDGET FOR GSFLOW 
 DATE: 04 07 1981              CUMULATIVE TIME STEP:     189
 MODFLOW STRESS PERIOD      2     CURRENT TIME STEP:     189     ITERATIONS:      10

 -----------------------------------------------------------------------------------

   CUMULATIVE VOLUMES               L**3   RATES FOR THIS TIME STEP           L**3/T
   ------------------                      ------------------------

                                     IN                                         IN
                                     --                                         --
        PRECIPITATION =        1.6121D+07          PRECIPITATION =                  
           STREAMFLOW =                               STREAMFLOW =                  
     GW BOUNDARY FLOW =                         GW BOUNDARY FLOW =                  


                                    OUT                                        OUT
                                    ---                                        ---
   EVAPOTRANSPIRATION =        6391331.03     EVAPOTRANSPIRATION =         106275.37
           STREAMFLOW =        4833973.07             STREAMFLOW =          44572.22
     GW BOUNDARY FLOW =         123019.47       GW BOUNDARY FLOW =            653.91

   INFLOWS - OUTFLOWS =        4773144.03     INFLOWS - OUTFLOWS =        -151501.50
             --------                                   --------

 TOTAL STORAGE CHANGE =        4781264.35         STORAGE CHANGE =        -151529.15
       --------------                             --------------
         LAND SURFACE =        3736166.95           LAND SURFACE =        -144352.20
            SOIL ZONE =        2471185.51              SOIL ZONE =         -20257.91
     UNSATURATED ZONE =        -747160.68       UNSATURATED ZONE =          12095.87
       SATURATED ZONE =        -678927.44         SATURATED ZONE =            985.09

 OVERALL BUDGET ERROR =          -8120.31           BUDGET ERROR =             27.65


  PERCENT DISCREPANCY =             -0.05    PERCENT DISCREPANCY =              0.02



1
 SUMMARY VOLUMETRIC BUDGET FOR GSFLOW 
 DATE: 04 14 1981              CUMULATIVE TIME STEP:     196
 MODFLOW STRESS PERIOD      2     CURRENT TIME STEP:     196     ITERATIONS:      13

 -----------------------------------------------------------------------------------

   CUMULATIVE VOLUMES               L**3   RATES FOR THIS TIME STEP           L**3/T
   ------------------                      ------------------------

                                     IN                                         IN
                                     --                                         --
        PRECIPITATION =        1.6121D+07          PRECIPITATION =                  
           STREAMFLOW =                               STREAMFLOW =                  
     GW BOUNDARY FLOW =                         GW BOUNDARY FLOW =                  


                                    OUT                                        OUT
                                    ---                                        ---
   EVAPOTRANSPIRATION =        7317752.47     EVAPOTRANSPIRATION =         190233.46
           STREAMFLOW =        5152561.07             STREAMFLOW =          51966.84
     GW BOUNDARY FLOW =         127594.44       GW BOUNDARY FLOW =            653.36

   INFLOWS - OUTFLOWS =        3523559.62     INFLOWS - OUTFLOWS =        -242853.66
             --------                                   --------

 TOTAL STORAGE CHANGE =        3531543.04         STORAGE CHANGE =        -242861.49
       --------------                             --------------
         LAND SURFACE =        2519776.34           LAND SURFACE =        -240402.34
            SOIL ZONE =        2342542.06              SOIL ZONE =         -22389.32
     UNSATURATED ZONE =        -661128.15       UNSATURATED ZONE =          17703.88
       SATURATED ZONE =        -669647.21         SATURATED ZONE =           2226.29

 OVERALL BUDGET ERROR =          -7983.42           BUDGET ERROR =              7.83


  PERCENT DISCREPANCY =             -0.05    PERCENT DISCREPANCY =              0.00



1
 SUMMARY VOLUMETRIC BUDGET FOR GSFLOW 
 DATE: 04 21 1981              CUMULATIVE TIME STEP:     203
 MODFLOW STRESS PERIOD      2     CURRENT TIME STEP:     203     ITERATIONS:      12

 -----------------------------------------------------------------------------------

   CUMULATIVE VOLUMES               L**3   RATES FOR THIS TIME STEP           L**3/T
   ------------------                      ------------------------

                                     IN                                         IN
                                     --                                         --
        PRECIPITATION =        1.6310D+07          PRECIPITATION =                  
           STREAMFLOW =                               STREAMFLOW =                  
     GW BOUNDARY FLOW =                         GW BOUNDARY FLOW =                  


                                    OUT                                        OUT
                                    ---                                        ---
   EVAPOTRANSPIRATION =        8374624.84     EVAPOTRANSPIRATION =         149725.29
           STREAMFLOW =        5469066.82             STREAMFLOW =          42567.19
     GW BOUNDARY FLOW =         132163.49       GW BOUNDARY FLOW =            652.30

   INFLOWS - OUTFLOWS =        2334387.49     INFLOWS - OUTFLOWS =        -192944.78
             --------                                   --------

 TOTAL STORAGE CHANGE =        2342267.24         STORAGE CHANGE =        -192964.33
       --------------                             --------------
         LAND SURFACE =        1382538.25           LAND SURFACE =        -117802.65
            SOIL ZONE =        2166698.98              SOIL ZONE =         -93261.45
     UNSATURATED ZONE =        -554383.40       UNSATURATED ZONE =          15577.94
       SATURATED ZONE =        -652586.59         SATURATED ZONE =           2521.83

 OVERALL BUDGET ERROR =          -7879.75           BUDGET ERROR =             19.55


  PERCENT DISCREPANCY =             -0.05    PERCENT DISCREPANCY =              0.01



1
 SUMMARY VOLUMETRIC BUDGET FOR GSFLOW 
 DATE: 04 28 1981              CUMULATIVE TIME STEP:     210
 MODFLOW STRESS PERIOD      2     CURRENT TIME STEP:     210     ITERATIONS:      13

 -----------------------------------------------------------------------------------

   CUMULATIVE VOLUMES               L**3   RATES FOR THIS TIME STEP           L**3/T
   ------------------                      ------------------------

                                     IN                                         IN
                                     --                                         --
        PRECIPITATION =        1.6515D+07          PRECIPITATION =                  
           STREAMFLOW =                               STREAMFLOW =                  
     GW BOUNDARY FLOW =                         GW BOUNDARY FLOW =                  


                                    OUT                                        OUT
                                    ---                                        ---
   EVAPOTRANSPIRATION =        9595078.99     EVAPOTRANSPIRATION =         199393.50
           STREAMFLOW =        5657503.64             STREAMFLOW =          21150.20
     GW BOUNDARY FLOW =         136720.66       GW BOUNDARY FLOW =            650.15

   INFLOWS - OUTFLOWS =        1126129.61     INFLOWS - OUTFLOWS =        -221193.84
             --------                                   --------

 TOTAL STORAGE CHANGE =        1133897.29         STORAGE CHANGE =        -221209.03
       --------------                             --------------
         LAND SURFACE =         673414.06           LAND SURFACE =         -80832.88
            SOIL ZONE =        1673981.41              SOIL ZONE =        -134254.65
     UNSATURATED ZONE =        -562268.65       UNSATURATED ZONE =          -5496.91
       SATURATED ZONE =        -651229.54         SATURATED ZONE =           -624.59

 OVERALL BUDGET ERROR =          -7767.68           BUDGET ERROR =             15.19


  PERCENT DISCREPANCY =             -0.05    PERCENT DISCREPANCY =              0.01



1
 SUMMARY VOLUMETRIC BUDGET FOR GSFLOW 
 DATE: 05 05 1981              CUMULATIVE TIME STEP:     217
 MODFLOW STRESS PERIOD      2     CURRENT TIME STEP:     217     ITERATIONS:      14

 -----------------------------------------------------------------------------------

   CUMULATIVE VOLUMES               L**3   RATES FOR THIS TIME STEP           L**3/T
   ------------------                      ------------------------

                                     IN                                         IN
                                     --                                         --
        PRECIPITATION =        1.6515D+07          PRECIPITATION =                  
           STREAMFLOW =                               STREAMFLOW =                  
     GW BOUNDARY FLOW =                         GW BOUNDARY FLOW =                  


                                    OUT                                        OUT
                                    ---                                        ---
   EVAPOTRANSPIRATION =        1.0444D+07     EVAPOTRANSPIRATION =          52076.63
           STREAMFLOW =        5749052.76             STREAMFLOW =          10134.07
     GW BOUNDARY FLOW =         141265.10       GW BOUNDARY FLOW =            648.64

   INFLOWS - OUTFLOWS =         181122.31     INFLOWS - OUTFLOWS =         -62859.33
             --------                                   --------

 TOTAL STORAGE CHANGE =         188854.90         STORAGE CHANGE =         -62860.21
       --------------                             --------------
         LAND SURFACE =         334656.41           LAND SURFACE =         -15721.29
            SOIL ZONE =        1175835.80              SOIL ZONE =         -28277.21
     UNSATURATED ZONE =        -655564.35       UNSATURATED ZONE =         -15860.54
       SATURATED ZONE =        -666072.96         SATURATED ZONE =          -3001.17

 OVERALL BUDGET ERROR =          -7732.58           BUDGET ERROR =              0.88


  PERCENT DISCREPANCY =             -0.05    PERCENT DISCREPANCY =              0.00



1
 SUMMARY VOLUMETRIC BUDGET FOR GSFLOW 
 DATE: 05 12 1981              CUMULATIVE TIME STEP:     224
 MODFLOW STRESS PERIOD      2     CURRENT TIME STEP:     224     ITERATIONS:      12

 -----------------------------------------------------------------------------------

   CUMULATIVE VOLUMES               L**3   RATES FOR THIS TIME STEP           L**3/T
   ------------------                      ------------------------

                                     IN                                         IN
                                     --                                         --
        PRECIPITATION =        1.6515D+07          PRECIPITATION =                  
           STREAMFLOW =                               STREAMFLOW =                  
     GW BOUNDARY FLOW =                         GW BOUNDARY FLOW =                  


                                    OUT                                        OUT
                                    ---                                        ---
   EVAPOTRANSPIRATION =        1.0923D+07     EVAPOTRANSPIRATION =          86871.93
           STREAMFLOW =        5817773.76             STREAMFLOW =          10387.48
     GW BOUNDARY FLOW =         145803.26       GW BOUNDARY FLOW =            648.20

   INFLOWS - OUTFLOWS =        -371525.17     INFLOWS - OUTFLOWS =         -97907.61
             --------                                   --------

 TOTAL STORAGE CHANGE =        -363811.46         STORAGE CHANGE =         -97909.01
       --------------                             --------------
         LAND SURFACE =         200880.64           LAND SURFACE =         -23187.22
            SOIL ZONE =         894075.91              SOIL ZONE =         -55811.25
     UNSATURATED ZONE =        -761608.80       UNSATURATED ZONE =         -13450.93
       SATURATED ZONE =        -697159.20         SATURATED ZONE =          -5459.61

 OVERALL BUDGET ERROR =          -7713.72           BUDGET ERROR =              1.40


  PERCENT DISCREPANCY =             -0.05    PERCENT DISCREPANCY =              0.00



1
 SUMMARY VOLUMETRIC BUDGET FOR GSFLOW 
 DATE: 05 19 1981              CUMULATIVE TIME STEP:     231
 MODFLOW STRESS PERIOD      2     CURRENT TIME STEP:     231     ITERATIONS:      16

 -----------------------------------------------------------------------------------

   CUMULATIVE VOLUMES               L**3   RATES FOR THIS TIME STEP           L**3/T
   ------------------                      ------------------------

                                     IN                                         IN
                                     --                                         --
        PRECIPITATION =        1.7837D+07          PRECIPITATION =         169045.43
           STREAMFLOW =                               STREAMFLOW =                  
     GW BOUNDARY FLOW =                         GW BOUNDARY FLOW =                  


                                    OUT                                        OUT
                                    ---                                        ---
   EVAPOTRANSPIRATION =        1.1309D+07     EVAPOTRANSPIRATION =          31098.89
           STREAMFLOW =        5941144.40             STREAMFLOW =          22819.98
     GW BOUNDARY FLOW =         150342.59       GW BOUNDARY FLOW =            649.37

   INFLOWS - OUTFLOWS =         436237.94     INFLOWS - OUTFLOWS =         114477.18
             --------                                   --------

 TOTAL STORAGE CHANGE =         443974.63         STORAGE CHANGE =         114481.76
       --------------                             --------------
         LAND SURFACE =         191525.02           LAND SURFACE =          21995.78
            SOIL ZONE =        1822503.81              SOIL ZONE =         101653.05
     UNSATURATED ZONE =        -832203.83       UNSATURATED ZONE =          -2922.78
       SATURATED ZONE =        -737850.36         SATURATED ZONE =          -6244.30

 OVERALL BUDGET ERROR =          -7736.69           BUDGET ERROR =             -4.58


  PERCENT DISCREPANCY =             -0.04    PERCENT DISCREPANCY =             -0.00



1
 SUMMARY VOLUMETRIC BUDGET FOR GSFLOW 
 DATE: 05 26 1981              CUMULATIVE TIME STEP:     238
 MODFLOW STRESS PERIOD      2     CURRENT TIME STEP:     238     ITERATIONS:      14

 -----------------------------------------------------------------------------------

   CUMULATIVE VOLUMES               L**3   RATES FOR THIS TIME STEP           L**3/T
   ------------------                      ------------------------

                                     IN                                         IN
                                     --                                         --
        PRECIPITATION =        1.8252D+07          PRECIPITATION =         284303.67
           STREAMFLOW =                               STREAMFLOW =                  
     GW BOUNDARY FLOW =                         GW BOUNDARY FLOW =                  


                                    OUT                                        OUT
                                    ---                                        ---
   EVAPOTRANSPIRATION =        1.2155D+07     EVAPOTRANSPIRATION =         134158.24
           STREAMFLOW =        6042994.47             STREAMFLOW =          18559.08
     GW BOUNDARY FLOW =         154882.90       GW BOUNDARY FLOW =            648.42

   INFLOWS - OUTFLOWS =        -100899.28     INFLOWS - OUTFLOWS =         130937.94
             --------                                   --------

 TOTAL STORAGE CHANGE =         -93128.86         STORAGE CHANGE =         130939.26
       --------------                             --------------
         LAND SURFACE =         116838.50           LAND SURFACE =          -7314.96
            SOIL ZONE =        1476423.05              SOIL ZONE =         155212.02
     UNSATURATED ZONE =        -900282.68       UNSATURATED ZONE =         -10598.90
       SATURATED ZONE =        -786107.72         SATURATED ZONE =          -6358.90

 OVERALL BUDGET ERROR =          -7770.42           BUDGET ERROR =             -1.32


  PERCENT DISCREPANCY =             -0.04    PERCENT DISCREPANCY =             -0.00



1
 SUMMARY VOLUMETRIC BUDGET FOR GSFLOW 
 DATE: 06 02 1981              CUMULATIVE TIME STEP:     245
 MODFLOW STRESS PERIOD      2     CURRENT TIME STEP:     245     ITERATIONS:      12

 -----------------------------------------------------------------------------------

   CUMULATIVE VOLUMES               L**3   RATES FOR THIS TIME STEP           L**3/T
   ------------------                      ------------------------

                                     IN                                         IN
                                     --                                         --
        PRECIPITATION =        1.8318D+07          PRECIPITATION =          50869.96
           STREAMFLOW =                               STREAMFLOW =                  
     GW BOUNDARY FLOW =                         GW BOUNDARY FLOW =                  


                                    OUT                                        OUT
                                    ---                                        ---
   EVAPOTRANSPIRATION =        1.2935D+07     EVAPOTRANSPIRATION =          76827.87
           STREAMFLOW =        6108936.66             STREAMFLOW =           7503.02
     GW BOUNDARY FLOW =         159417.75       GW BOUNDARY FLOW =            647.42

   INFLOWS - OUTFLOWS =        -884990.92     INFLOWS - OUTFLOWS =         -34108.36
             --------                                   --------

 TOTAL STORAGE CHANGE =        -877200.65         STORAGE CHANGE =         -34109.70
       --------------                             --------------
         LAND SURFACE =          73764.49           LAND SURFACE =          28874.37
            SOIL ZONE =         876812.07              SOIL ZONE =         -41811.57
     UNSATURATED ZONE =        -984276.96       UNSATURATED ZONE =         -12742.70
       SATURATED ZONE =        -843500.25         SATURATED ZONE =          -8429.80

 OVERALL BUDGET ERROR =          -7790.28           BUDGET ERROR =              1.34


  PERCENT DISCREPANCY =             -0.04    PERCENT DISCREPANCY =              0.00



1
 SUMMARY VOLUMETRIC BUDGET FOR GSFLOW 
 DATE: 06 09 1981              CUMULATIVE TIME STEP:     252
 MODFLOW STRESS PERIOD      2     CURRENT TIME STEP:     252     ITERATIONS:      15

 -----------------------------------------------------------------------------------

   CUMULATIVE VOLUMES               L**3   RATES FOR THIS TIME STEP           L**3/T
   ------------------                      ------------------------

                                     IN                                         IN
                                     --                                         --
        PRECIPITATION =        1.8318D+07          PRECIPITATION =                  
           STREAMFLOW =                               STREAMFLOW =                  
     GW BOUNDARY FLOW =                         GW BOUNDARY FLOW =                  


                                    OUT                                        OUT
                                    ---                                        ---
   EVAPOTRANSPIRATION =        1.3425D+07     EVAPOTRANSPIRATION =          54184.35
           STREAMFLOW =        6155523.44             STREAMFLOW =           6311.60
     GW BOUNDARY FLOW =         163947.81       GW BOUNDARY FLOW =            647.00

   INFLOWS - OUTFLOWS =       -1426479.69     INFLOWS - OUTFLOWS =         -61142.96
             --------                                   --------

 TOTAL STORAGE CHANGE =       -1418639.32         STORAGE CHANGE =         -61140.63
       --------------                             --------------
         LAND SURFACE =          12433.04           LAND SURFACE =          -2874.35
            SOIL ZONE =         550391.19              SOIL ZONE =         -36134.33
     UNSATURATED ZONE =       -1073910.10       UNSATURATED ZONE =         -12655.48
       SATURATED ZONE =        -907553.45         SATURATED ZONE =          -9476.47

 OVERALL BUDGET ERROR =          -7840.37           BUDGET ERROR =             -2.32


  PERCENT DISCREPANCY =             -0.04    PERCENT DISCREPANCY =             -0.00



1
 SUMMARY VOLUMETRIC BUDGET FOR GSFLOW 
 DATE: 06 16 1981              CUMULATIVE TIME STEP:     259
 MODFLOW STRESS PERIOD      2     CURRENT TIME STEP:     259     ITERATIONS:      13

 -----------------------------------------------------------------------------------

   CUMULATIVE VOLUMES               L**3   RATES FOR THIS TIME STEP           L**3/T
   ------------------                      ------------------------

                                     IN                                         IN
                                     --                                         --
        PRECIPITATION =        1.8318D+07          PRECIPITATION =                  
           STREAMFLOW =                               STREAMFLOW =                  
     GW BOUNDARY FLOW =                         GW BOUNDARY FLOW =                  


                                    OUT                                        OUT
                                    ---                                        ---
   EVAPOTRANSPIRATION =        1.3621D+07     EVAPOTRANSPIRATION =          45071.22
           STREAMFLOW =        6198566.50             STREAMFLOW =           6097.93
     GW BOUNDARY FLOW =         168475.93       GW BOUNDARY FLOW =            646.80

   INFLOWS - OUTFLOWS =       -1669529.07     INFLOWS - OUTFLOWS =         -51815.95
             --------                                   --------

 TOTAL STORAGE CHANGE =       -1661653.41         STORAGE CHANGE =         -51814.57
       --------------                             --------------
         LAND SURFACE =           5589.10           LAND SURFACE =          -1244.68
            SOIL ZONE =         467938.12              SOIL ZONE =         -28735.79
     UNSATURATED ZONE =       -1162289.96       UNSATURATED ZONE =         -12388.12
       SATURATED ZONE =        -972890.67         SATURATED ZONE =          -9445.98

 OVERALL BUDGET ERROR =          -7875.66           BUDGET ERROR =             -1.38


  PERCENT DISCREPANCY =             -0.04    PERCENT DISCREPANCY =             -0.00



1
 SUMMARY VOLUMETRIC BUDGET FOR GSFLOW 
 DATE: 06 23 1981              CUMULATIVE TIME STEP:     266
 MODFLOW STRESS PERIOD      2     CURRENT TIME STEP:     266     ITERATIONS:      10

 -----------------------------------------------------------------------------------

   CUMULATIVE VOLUMES               L**3   RATES FOR THIS TIME STEP           L**3/T
   ------------------                      ------------------------

                                     IN                                         IN
                                     --                                         --
        PRECIPITATION =        1.8318D+07          PRECIPITATION =                  
           STREAMFLOW =                               STREAMFLOW =                  
     GW BOUNDARY FLOW =                         GW BOUNDARY FLOW =                  


                                    OUT                                        OUT
                                    ---                                        ---
   EVAPOTRANSPIRATION =        1.3912D+07     EVAPOTRANSPIRATION =          32639.08
           STREAMFLOW =        6240475.95             STREAMFLOW =           5929.21
     GW BOUNDARY FLOW =         173003.96       GW BOUNDARY FLOW =            647.15

   INFLOWS - OUTFLOWS =       -2007361.18     INFLOWS - OUTFLOWS =         -39215.44
             --------                                   --------

 TOTAL STORAGE CHANGE =       -1999438.87         STORAGE CHANGE =         -39204.78
       --------------                             --------------
         LAND SURFACE =       -9.1671D-10           LAND SURFACE =                  
            SOIL ZONE =         287417.47              SOIL ZONE =         -17661.11
     UNSATURATED ZONE =       -1245042.48       UNSATURATED ZONE =         -11501.16
       SATURATED ZONE =       -1041813.86         SATURATED ZONE =         -10042.51

 OVERALL BUDGET ERROR =          -7922.31           BUDGET ERROR =            -10.65


  PERCENT DISCREPANCY =             -0.04    PERCENT DISCREPANCY =             -0.03



1
 SUMMARY VOLUMETRIC BUDGET FOR GSFLOW 
 DATE: 06 30 1981              CUMULATIVE TIME STEP:     273
 MODFLOW STRESS PERIOD      2     CURRENT TIME STEP:     273     ITERATIONS:      13

 -----------------------------------------------------------------------------------

   CUMULATIVE VOLUMES               L**3   RATES FOR THIS TIME STEP           L**3/T
   ------------------                      ------------------------

                                     IN                                         IN
[...]
                                    ---                                        ---
   EVAPOTRANSPIRATION =        2.8742D+08     EVAPOTRANSPIRATION =          36398.46
           STREAMFLOW =        1.8198D+08             STREAMFLOW =           6970.57
     GW BOUNDARY FLOW =        3738505.51       GW BOUNDARY FLOW =            651.44

   INFLOWS - OUTFLOWS =       -8076880.26     INFLOWS - OUTFLOWS =         -44020.47
             --------                                   --------

 TOTAL STORAGE CHANGE =       -7971074.67         STORAGE CHANGE =         -44040.57
       --------------                             --------------
         LAND SURFACE =           3414.17           LAND SURFACE =           -684.29
            SOIL ZONE =         251024.73              SOIL ZONE =         -21892.61
     UNSATURATED ZONE =        5449664.27       UNSATURATED ZONE =         -27617.90
       SATURATED ZONE =       -1.3675D+07         SATURATED ZONE =           6154.23

 OVERALL BUDGET ERROR =        -105805.60           BUDGET ERROR =             20.10


  PERCENT DISCREPANCY =             -0.02    PERCENT DISCREPANCY =              0.05



1
 SUMMARY VOLUMETRIC BUDGET FOR GSFLOW 
 DATE: 07 30 1996              CUMULATIVE TIME STEP:    5782
 MODFLOW STRESS PERIOD      2     CURRENT TIME STEP:    5782     ITERATIONS:      15

 -----------------------------------------------------------------------------------

   CUMULATIVE VOLUMES               L**3   RATES FOR THIS TIME STEP           L**3/T
   ------------------                      ------------------------

                                     IN                                         IN
                                     --                                         --
        PRECIPITATION =        4.6511D+08          PRECIPITATION =                  
           STREAMFLOW =                               STREAMFLOW =                  
     GW BOUNDARY FLOW =                         GW BOUNDARY FLOW =                  


                                    OUT                                        OUT
                                    ---                                        ---
   EVAPOTRANSPIRATION =        2.8764D+08     EVAPOTRANSPIRATION =          24142.36
           STREAMFLOW =        1.8203D+08             STREAMFLOW =           6806.17
     GW BOUNDARY FLOW =        3743063.82       GW BOUNDARY FLOW =            650.98

   INFLOWS - OUTFLOWS =       -8303384.19     INFLOWS - OUTFLOWS =         -31599.50
             --------                                   --------

 TOTAL STORAGE CHANGE =       -8197687.01         STORAGE CHANGE =         -31607.45
       --------------                             --------------
         LAND SURFACE =            304.32           LAND SURFACE =           -298.58
            SOIL ZONE =         176324.09              SOIL ZONE =         -10197.59
     UNSATURATED ZONE =        5260888.69       UNSATURATED ZONE =         -26486.68
       SATURATED ZONE =       -1.3635D+07         SATURATED ZONE =           5375.40

 OVERALL BUDGET ERROR =        -105697.18           BUDGET ERROR =              7.95


  PERCENT DISCREPANCY =             -0.02    PERCENT DISCREPANCY =              0.03



1
 SUMMARY VOLUMETRIC BUDGET FOR GSFLOW 
 DATE: 08 06 1996              CUMULATIVE TIME STEP:    5789
 MODFLOW STRESS PERIOD      2     CURRENT TIME STEP:    5789     ITERATIONS:      15

 -----------------------------------------------------------------------------------

   CUMULATIVE VOLUMES               L**3   RATES FOR THIS TIME STEP           L**3/T
   ------------------                      ------------------------

                                     IN                                         IN
                                     --                                         --
        PRECIPITATION =        4.6511D+08          PRECIPITATION =                  
           STREAMFLOW =                               STREAMFLOW =                  
     GW BOUNDARY FLOW =                         GW BOUNDARY FLOW =                  


                                    OUT                                        OUT
                                    ---                                        ---
   EVAPOTRANSPIRATION =        2.8777D+08     EVAPOTRANSPIRATION =          15893.29
           STREAMFLOW =        1.8208D+08             STREAMFLOW =           6609.04
     GW BOUNDARY FLOW =        3747619.86       GW BOUNDARY FLOW =            650.81

   INFLOWS - OUTFLOWS =       -8482275.63     INFLOWS - OUTFLOWS =         -23153.14
             --------                                   --------

 TOTAL STORAGE CHANGE =       -8376641.27         STORAGE CHANGE =         -23162.22
       --------------                             --------------
         LAND SURFACE =        2.3265D-08           LAND SURFACE =                  
            SOIL ZONE =         144231.92              SOIL ZONE =          -2354.16
     UNSATURATED ZONE =        5079630.02       UNSATURATED ZONE =         -25671.91
       SATURATED ZONE =       -1.3601D+07         SATURATED ZONE =           4863.85

 OVERALL BUDGET ERROR =        -105634.36           BUDGET ERROR =              9.08


  PERCENT DISCREPANCY =             -0.02    PERCENT DISCREPANCY =              0.04



1
 SUMMARY VOLUMETRIC BUDGET FOR GSFLOW 
 DATE: 08 13 1996              CUMULATIVE TIME STEP:    5796
 MODFLOW STRESS PERIOD      2     CURRENT TIME STEP:    5796     ITERATIONS:      15

 -----------------------------------------------------------------------------------

   CUMULATIVE VOLUMES               L**3   RATES FOR THIS TIME STEP           L**3/T
   ------------------                      ------------------------

                                     IN                                         IN
                                     --                                         --
        PRECIPITATION =        4.6531D+08          PRECIPITATION =          54454.08
           STREAMFLOW =                               STREAMFLOW =                  
     GW BOUNDARY FLOW =                         GW BOUNDARY FLOW =                  


                                    OUT                                        OUT
                                    ---                                        ---
   EVAPOTRANSPIRATION =        2.8792D+08     EVAPOTRANSPIRATION =          31064.81
           STREAMFLOW =        1.8213D+08             STREAMFLOW =           7797.36
     GW BOUNDARY FLOW =        3752175.09       GW BOUNDARY FLOW =            650.78

   INFLOWS - OUTFLOWS =       -8489260.35     INFLOWS - OUTFLOWS =          14941.14
             --------                                   --------

 TOTAL STORAGE CHANGE =       -8383713.27         STORAGE CHANGE =          14922.89
       --------------                             --------------
         LAND SURFACE =          34505.06           LAND SURFACE =                  
            SOIL ZONE =         246830.08              SOIL ZONE =          35329.95
     UNSATURATED ZONE =        4903338.37       UNSATURATED ZONE =         -24587.88
       SATURATED ZONE =       -1.3568D+07         SATURATED ZONE =           4180.81

 OVERALL BUDGET ERROR =        -105547.08           BUDGET ERROR =             18.25


  PERCENT DISCREPANCY =             -0.02    PERCENT DISCREPANCY =              0.03



1
 SUMMARY VOLUMETRIC BUDGET FOR GSFLOW 
 DATE: 08 20 1996              CUMULATIVE TIME STEP:    5803
 MODFLOW STRESS PERIOD      2     CURRENT TIME STEP:    5803     ITERATIONS:      15

 -----------------------------------------------------------------------------------

   CUMULATIVE VOLUMES               L**3   RATES FOR THIS TIME STEP           L**3/T
   ------------------                      ------------------------

                                     IN                                         IN
                                     --                                         --
        PRECIPITATION =        4.6531D+08          PRECIPITATION =                  
           STREAMFLOW =                               STREAMFLOW =                  
     GW BOUNDARY FLOW =                         GW BOUNDARY FLOW =                  


                                    OUT                                        OUT
                                    ---                                        ---
   EVAPOTRANSPIRATION =        2.8811D+08     EVAPOTRANSPIRATION =          17074.67
           STREAMFLOW =        1.8217D+08             STREAMFLOW =           6414.19
     GW BOUNDARY FLOW =        3756728.69       GW BOUNDARY FLOW =            650.34

   INFLOWS - OUTFLOWS =       -8727090.80     INFLOWS - OUTFLOWS =         -24139.20
             --------                                   --------

 TOTAL STORAGE CHANGE =       -8621605.74         STORAGE CHANGE =         -24134.58
       --------------                             --------------
         LAND SURFACE =        2.3269D-08           LAND SURFACE =                  
            SOIL ZONE =         186087.14              SOIL ZONE =          -3877.87
     UNSATURATED ZONE =        4738782.74       UNSATURATED ZONE =         -22849.02
       SATURATED ZONE =       -1.3546D+07         SATURATED ZONE =           2592.31

 OVERALL BUDGET ERROR =        -105485.06           BUDGET ERROR =             -4.61


  PERCENT DISCREPANCY =             -0.02    PERCENT DISCREPANCY =             -0.02



1
 SUMMARY VOLUMETRIC BUDGET FOR GSFLOW 
 DATE: 08 27 1996              CUMULATIVE TIME STEP:    5810
 MODFLOW STRESS PERIOD      2     CURRENT TIME STEP:    5810     ITERATIONS:      15

 -----------------------------------------------------------------------------------

   CUMULATIVE VOLUMES               L**3   RATES FOR THIS TIME STEP           L**3/T
   ------------------                      ------------------------

                                     IN                                         IN
                                     --                                         --
        PRECIPITATION =        4.6531D+08          PRECIPITATION =                  
           STREAMFLOW =                               STREAMFLOW =                  
     GW BOUNDARY FLOW =                         GW BOUNDARY FLOW =                  


                                    OUT                                        OUT
                                    ---                                        ---
   EVAPOTRANSPIRATION =        2.8824D+08     EVAPOTRANSPIRATION =          15214.76
           STREAMFLOW =        1.8222D+08             STREAMFLOW =           6257.82
     GW BOUNDARY FLOW =        3761279.66       GW BOUNDARY FLOW =            649.97

   INFLOWS - OUTFLOWS =       -8909241.76     INFLOWS - OUTFLOWS =         -22122.55
             --------                                   --------

 TOTAL STORAGE CHANGE =       -8803804.86         STORAGE CHANGE =         -22124.27
       --------------                             --------------
         LAND SURFACE =        2.3269D-08           LAND SURFACE =                  
            SOIL ZONE =         144760.72              SOIL ZONE =          -2110.22
     UNSATURATED ZONE =        4582063.65       UNSATURATED ZONE =         -22219.46
       SATURATED ZONE =       -1.3531D+07         SATURATED ZONE =           2205.42

 OVERALL BUDGET ERROR =        -105436.90           BUDGET ERROR =              1.72


  PERCENT DISCREPANCY =             -0.02    PERCENT DISCREPANCY =              0.01



1
 SUMMARY VOLUMETRIC BUDGET FOR GSFLOW 
 DATE: 09 03 1996              CUMULATIVE TIME STEP:    5817
 MODFLOW STRESS PERIOD      2     CURRENT TIME STEP:    5817     ITERATIONS:      13

 -----------------------------------------------------------------------------------

   CUMULATIVE VOLUMES               L**3   RATES FOR THIS TIME STEP           L**3/T
   ------------------                      ------------------------

                                     IN                                         IN
                                     --                                         --
        PRECIPITATION =        4.6531D+08          PRECIPITATION =                  
           STREAMFLOW =                               STREAMFLOW =                  
     GW BOUNDARY FLOW =                         GW BOUNDARY FLOW =                  


                                    OUT                                        OUT
                                    ---                                        ---
   EVAPOTRANSPIRATION =        2.8835D+08     EVAPOTRANSPIRATION =          12619.38
           STREAMFLOW =        1.8226D+08             STREAMFLOW =           6154.40
     GW BOUNDARY FLOW =        3765827.86       GW BOUNDARY FLOW =            649.59

   INFLOWS - OUTFLOWS =       -9062421.47     INFLOWS - OUTFLOWS =         -19423.38
             --------                                   --------

 TOTAL STORAGE CHANGE =       -8957097.62         STORAGE CHANGE =         -19448.27
       --------------                             --------------
         LAND SURFACE =        2.3269D-08           LAND SURFACE =                  
            SOIL ZONE =         130728.23              SOIL ZONE =            355.20
     UNSATURATED ZONE =        4430594.36       UNSATURATED ZONE =         -21058.80
       SATURATED ZONE =       -1.3518D+07         SATURATED ZONE =           1255.34

 OVERALL BUDGET ERROR =        -105323.86           BUDGET ERROR =             24.89


  PERCENT DISCREPANCY =             -0.02    PERCENT DISCREPANCY =              0.13



1
 SUMMARY VOLUMETRIC BUDGET FOR GSFLOW 
 DATE: 09 10 1996              CUMULATIVE TIME STEP:    5824
 MODFLOW STRESS PERIOD      2     CURRENT TIME STEP:    5824     ITERATIONS:      13

 -----------------------------------------------------------------------------------

   CUMULATIVE VOLUMES               L**3   RATES FOR THIS TIME STEP           L**3/T
   ------------------                      ------------------------

                                     IN                                         IN
                                     --                                         --
        PRECIPITATION =        4.6531D+08          PRECIPITATION =                  
           STREAMFLOW =                               STREAMFLOW =                  
     GW BOUNDARY FLOW =                         GW BOUNDARY FLOW =                  


                                    OUT                                        OUT
                                    ---                                        ---
   EVAPOTRANSPIRATION =        2.8843D+08     EVAPOTRANSPIRATION =          13153.24
           STREAMFLOW =        1.8230D+08             STREAMFLOW =           6061.90
     GW BOUNDARY FLOW =        3770373.68       GW BOUNDARY FLOW =            649.26

   INFLOWS - OUTFLOWS =       -9193227.26     INFLOWS - OUTFLOWS =         -19864.40
             --------                                   --------

 TOTAL STORAGE CHANGE =       -9088009.32         STORAGE CHANGE =         -19885.01
       --------------                             --------------
         LAND SURFACE =        2.3269D-08           LAND SURFACE =                  
            SOIL ZONE =         137490.14              SOIL ZONE =           -304.95
     UNSATURATED ZONE =        4285448.58       UNSATURATED ZONE =         -20725.57
       SATURATED ZONE =       -1.3511D+07         SATURATED ZONE =           1145.51

 OVERALL BUDGET ERROR =        -105217.93           BUDGET ERROR =             20.61


  PERCENT DISCREPANCY =             -0.02    PERCENT DISCREPANCY =              0.10



1
 SUMMARY VOLUMETRIC BUDGET FOR GSFLOW 
 DATE: 09 17 1996              CUMULATIVE TIME STEP:    5831
 MODFLOW STRESS PERIOD      2     CURRENT TIME STEP:    5831     ITERATIONS:      13

 -----------------------------------------------------------------------------------

   CUMULATIVE VOLUMES               L**3   RATES FOR THIS TIME STEP           L**3/T
   ------------------                      ------------------------

                                     IN                                         IN
                                     --                                         --
        PRECIPITATION =        4.6637D+08          PRECIPITATION =                  
           STREAMFLOW =                               STREAMFLOW =                  
     GW BOUNDARY FLOW =                         GW BOUNDARY FLOW =                  


                                    OUT                                        OUT
                                    ---                                        ---
   EVAPOTRANSPIRATION =        2.8862D+08     EVAPOTRANSPIRATION =          67792.43
           STREAMFLOW =        1.8237D+08             STREAMFLOW =           9947.12
     GW BOUNDARY FLOW =        3774919.05       GW BOUNDARY FLOW =            649.67

   INFLOWS - OUTFLOWS =       -8398616.15     INFLOWS - OUTFLOWS =         -78389.21
             --------                                   --------

 TOTAL STORAGE CHANGE =       -8293550.82         STORAGE CHANGE =         -78417.60
       --------------                             --------------
         LAND SURFACE =        2.3269D-08           LAND SURFACE =         -34505.06
            SOIL ZONE =        1065961.22              SOIL ZONE =         -24523.56
     UNSATURATED ZONE =        4141893.84       UNSATURATED ZONE =         -20090.66
       SATURATED ZONE =       -1.3501D+07         SATURATED ZONE =            701.68

 OVERALL BUDGET ERROR =        -105065.34           BUDGET ERROR =             28.39


  PERCENT DISCREPANCY =             -0.02    PERCENT DISCREPANCY =              0.04



1
 SUMMARY VOLUMETRIC BUDGET FOR GSFLOW 
 DATE: 09 24 1996              CUMULATIVE TIME STEP:    5838
 MODFLOW STRESS PERIOD      2     CURRENT TIME STEP:    5838     ITERATIONS:      12

 -----------------------------------------------------------------------------------

   CUMULATIVE VOLUMES               L**3   RATES FOR THIS TIME STEP           L**3/T
   ------------------                      ------------------------

                                     IN                                         IN
                                     --                                         --
        PRECIPITATION =        4.6637D+08          PRECIPITATION =                  
           STREAMFLOW =                               STREAMFLOW =                  
     GW BOUNDARY FLOW =                         GW BOUNDARY FLOW =                  


                                    OUT                                        OUT
                                    ---                                        ---
   EVAPOTRANSPIRATION =        2.8913D+08     EVAPOTRANSPIRATION =          55401.23
           STREAMFLOW =        1.8242D+08             STREAMFLOW =           6247.72
     GW BOUNDARY FLOW =        3779462.77       GW BOUNDARY FLOW =            648.77

   INFLOWS - OUTFLOWS =       -8963817.64     INFLOWS - OUTFLOWS =         -62297.72
             --------                                   --------

 TOTAL STORAGE CHANGE =       -8858901.62         STORAGE CHANGE =         -62322.33
       --------------                             --------------
         LAND SURFACE =        2.3269D-08           LAND SURFACE =                  
            SOIL ZONE =         635654.86              SOIL ZONE =         -43127.47
     UNSATURATED ZONE =        4005106.91       UNSATURATED ZONE =         -19129.64
       SATURATED ZONE =       -1.3500D+07         SATURATED ZONE =            -65.23

 OVERALL BUDGET ERROR =        -104916.02           BUDGET ERROR =             24.61


  PERCENT DISCREPANCY =             -0.02    PERCENT DISCREPANCY =              0.04



