1
 SUMMARY VOLUMETRIC BUDGET FOR GSFLOW 
 DATE: 10 07 1980              CUMULATIVE TIME STEP:       7
 MODFLOW STRESS PERIOD      2     CURRENT TIME STEP:       7     ITERATIONS:       6

 -----------------------------------------------------------------------------------

   CUMULATIVE VOLUMES               L**3   RATES FOR THIS TIME STEP           L**3/T
   ------------------                      ------------------------

                                     IN                                         IN
                                     --                                         --
        PRECIPITATION =                            PRECIPITATION =                  
           STREAMFLOW =                               STREAMFLOW =                  
     GW BOUNDARY FLOW =                         GW BOUNDARY FLOW =                  


                                    OUT                                        OUT
                                    ---                                        ---
   EVAPOTRANSPIRATION =          65416.69     EVAPOTRANSPIRATION =           9162.60
           STREAMFLOW =          42957.63             STREAMFLOW =           6065.77
     GW BOUNDARY FLOW =           4541.44       GW BOUNDARY FLOW =            648.70

   INFLOWS - OUTFLOWS =        -112915.75     INFLOWS - OUTFLOWS =         -15877.07
             --------                                   --------

 TOTAL STORAGE CHANGE =        -112446.55         STORAGE CHANGE =         -15808.22
       --------------                             --------------
         LAND SURFACE =                             LAND SURFACE =                  
            SOIL ZONE =          45113.78              SOIL ZONE =           6534.35
     UNSATURATED ZONE =        -144777.37       UNSATURATED ZONE =         -20360.11
       SATURATED ZONE =         -12782.96         SATURATED ZONE =          -1982.46

 OVERALL BUDGET ERROR =           -469.21           BUDGET ERROR =            -68.85


  PERCENT DISCREPANCY =             -0.42    PERCENT DISCREPANCY =             -0.43



1
 SUMMARY VOLUMETRIC BUDGET FOR GSFLOW 
 DATE: 10 14 1980              CUMULATIVE TIME STEP:      14
 MODFLOW STRESS PERIOD      2     CURRENT TIME STEP:      14     ITERATIONS:       6

 -----------------------------------------------------------------------------------

   CUMULATIVE VOLUMES               L**3   RATES FOR THIS TIME STEP           L**3/T
   ------------------                      ------------------------

                                     IN                                         IN
                                     --                                         --
        PRECIPITATION =         650779.83          PRECIPITATION =         164754.40
           STREAMFLOW =                               STREAMFLOW =                  
     GW BOUNDARY FLOW =                         GW BOUNDARY FLOW =                  


                                    OUT                                        OUT
                                    ---                                        ---
   EVAPOTRANSPIRATION =         161544.81     EVAPOTRANSPIRATION =          11486.83
           STREAMFLOW =          94453.66             STREAMFLOW =           7710.05
     GW BOUNDARY FLOW =           9082.96       GW BOUNDARY FLOW =            648.93

   INFLOWS - OUTFLOWS =         385698.41     INFLOWS - OUTFLOWS =         144908.58
             --------                                   --------

 TOTAL STORAGE CHANGE =         386690.48         STORAGE CHANGE =         144983.43
       --------------                             --------------
         LAND SURFACE =         183750.35           LAND SURFACE =         130549.56
            SOIL ZONE =         514878.08              SOIL ZONE =          36453.21
     UNSATURATED ZONE =        -284494.33       UNSATURATED ZONE =         -19623.98
       SATURATED ZONE =         -27443.62         SATURATED ZONE =          -2395.36

 OVERALL BUDGET ERROR =           -992.07           BUDGET ERROR =            -74.85


  PERCENT DISCREPANCY =             -0.15    PERCENT DISCREPANCY =             -0.05



1
 SUMMARY VOLUMETRIC BUDGET FOR GSFLOW 
 DATE: 10 21 1980              CUMULATIVE TIME STEP:      21
 MODFLOW STRESS PERIOD      2     CURRENT TIME STEP:      21     ITERATIONS:       6

 -----------------------------------------------------------------------------------

   CUMULATIVE VOLUMES               L**3   RATES FOR THIS TIME STEP           L**3/T
   ------------------                      ------------------------

                                     IN                                         IN
                                     --                                         --
        PRECIPITATION =         733157.03          PRECIPITATION =                  
           STREAMFLOW =                               STREAMFLOW =                  
     GW BOUNDARY FLOW =                         GW BOUNDARY FLOW =                  


                                    OUT                                        OUT
                                    ---                                        ---
   EVAPOTRANSPIRATION =         392363.91     EVAPOTRANSPIRATION =          34546.58
           STREAMFLOW =         145739.66             STREAMFLOW =           6915.81
     GW BOUNDARY FLOW =          13624.70       GW BOUNDARY FLOW =            648.74

   INFLOWS - OUTFLOWS =         181428.76     INFLOWS - OUTFLOWS =         -42111.13
             --------                                   --------

 TOTAL STORAGE CHANGE =         182937.18         STORAGE CHANGE =         -42030.22
       --------------                             --------------
         LAND SURFACE =                             LAND SURFACE =                  
            SOIL ZONE =         647970.07              SOIL ZONE =         -20184.69
     UNSATURATED ZONE =        -418660.19       UNSATURATED ZONE =         -18825.26
       SATURATED ZONE =         -46372.70         SATURATED ZONE =          -3020.27

 OVERALL BUDGET ERROR =          -1508.42           BUDGET ERROR =            -80.91


  PERCENT DISCREPANCY =             -0.21    PERCENT DISCREPANCY =             -0.19



1
 SUMMARY VOLUMETRIC BUDGET FOR GSFLOW 
 DATE: 10 28 1980              CUMULATIVE TIME STEP:      28
 MODFLOW STRESS PERIOD      2     CURRENT TIME STEP:      28     ITERATIONS:       6

 -----------------------------------------------------------------------------------

   CUMULATIVE VOLUMES               L**3   RATES FOR THIS TIME STEP           L**3/T
   ------------------                      ------------------------

                                     IN                                         IN
                                     --                                         --
        PRECIPITATION =        1070903.53          PRECIPITATION =                  
           STREAMFLOW =                               STREAMFLOW =                  
     GW BOUNDARY FLOW =                         GW BOUNDARY FLOW =                  


                                    OUT                                        OUT
                                    ---                                        ---
   EVAPOTRANSPIRATION =         578775.44     EVAPOTRANSPIRATION =          24710.42
           STREAMFLOW =         200329.74             STREAMFLOW =           7957.60
     GW BOUNDARY FLOW =          18165.96       GW BOUNDARY FLOW =            648.80

   INFLOWS - OUTFLOWS =         273632.38     INFLOWS - OUTFLOWS =         -33316.81
             --------                                   --------

 TOTAL STORAGE CHANGE =         275721.33         STORAGE CHANGE =         -33230.81
       --------------                             --------------
         LAND SURFACE =          20571.52           LAND SURFACE =         -29890.86
            SOIL ZONE =         871327.55              SOIL ZONE =          18137.99
     UNSATURATED ZONE =        -547241.21       UNSATURATED ZONE =         -17999.48
       SATURATED ZONE =         -68936.53         SATURATED ZONE =          -3478.46

 OVERALL BUDGET ERROR =          -2088.95           BUDGET ERROR =            -86.00


  PERCENT DISCREPANCY =             -0.19    PERCENT DISCREPANCY =             -0.26



1
 SUMMARY VOLUMETRIC BUDGET FOR GSFLOW 
 DATE: 11 04 1980              CUMULATIVE TIME STEP:      35
 MODFLOW STRESS PERIOD      2     CURRENT TIME STEP:      35     ITERATIONS:       8

 -----------------------------------------------------------------------------------

   CUMULATIVE VOLUMES               L**3   RATES FOR THIS TIME STEP           L**3/T
   ------------------                      ------------------------

                                     IN                                         IN
                                     --                                         --
        PRECIPITATION =        1070903.53          PRECIPITATION =                  
           STREAMFLOW =                               STREAMFLOW =                  
     GW BOUNDARY FLOW =                         GW BOUNDARY FLOW =                  


                                    OUT                                        OUT
                                    ---                                        ---
   EVAPOTRANSPIRATION =         910114.77     EVAPOTRANSPIRATION =          47149.47
           STREAMFLOW =         252892.63             STREAMFLOW =           7064.98
     GW BOUNDARY FLOW =          22706.96       GW BOUNDARY FLOW =            648.65

   INFLOWS - OUTFLOWS =        -114810.84     INFLOWS - OUTFLOWS =         -54863.09
             --------                                   --------

 TOTAL STORAGE CHANGE =        -112247.88         STORAGE CHANGE =         -54798.52
       --------------                             --------------
         LAND SURFACE =                             LAND SURFACE =                  
            SOIL ZONE =         654522.53              SOIL ZONE =         -33280.55
     UNSATURATED ZONE =        -670645.32       UNSATURATED ZONE =         -17361.71
       SATURATED ZONE =         -96125.09         SATURATED ZONE =          -4156.26

 OVERALL BUDGET ERROR =          -2562.95           BUDGET ERROR =            -64.57


  PERCENT DISCREPANCY =             -0.22    PERCENT DISCREPANCY =             -0.12



1
 SUMMARY VOLUMETRIC BUDGET FOR GSFLOW 
 DATE: 11 11 1980              CUMULATIVE TIME STEP:      42
 MODFLOW STRESS PERIOD      2     CURRENT TIME STEP:      42     ITERATIONS:       7

 -----------------------------------------------------------------------------------

   CUMULATIVE VOLUMES               L**3   RATES FOR THIS TIME STEP           L**3/T
   ------------------                      ------------------------

                                     IN                                         IN
                                     --                                         --
        PRECIPITATION =        1573762.54          PRECIPITATION =         255182.19
           STREAMFLOW =                               STREAMFLOW =                  
     GW BOUNDARY FLOW =                         GW BOUNDARY FLOW =                  


                                    OUT                                        OUT
                                    ---                                        ---
   EVAPOTRANSPIRATION =        1117914.47     EVAPOTRANSPIRATION =          18592.46
           STREAMFLOW =         310082.93             STREAMFLOW =          10978.52
     GW BOUNDARY FLOW =          27247.81       GW BOUNDARY FLOW =            648.87

   INFLOWS - OUTFLOWS =         118517.34     INFLOWS - OUTFLOWS =         224962.34
             --------                                   --------

 TOTAL STORAGE CHANGE =         121616.30         STORAGE CHANGE =         225024.35
       --------------                             --------------
         LAND SURFACE =          76960.22           LAND SURFACE =          76747.38
            SOIL ZONE =         959761.65              SOIL ZONE =         168883.56
     UNSATURATED ZONE =        -789135.03       UNSATURATED ZONE =         -16539.96
       SATURATED ZONE =        -125970.54         SATURATED ZONE =          -4066.63

 OVERALL BUDGET ERROR =          -3098.96           BUDGET ERROR =            -62.01


  PERCENT DISCREPANCY =             -0.20    PERCENT DISCREPANCY =             -0.02



1
 SUMMARY VOLUMETRIC BUDGET FOR GSFLOW 
 DATE: 11 18 1980              CUMULATIVE TIME STEP:      49
 MODFLOW STRESS PERIOD      2     CURRENT TIME STEP:      49     ITERATIONS:       6

 -----------------------------------------------------------------------------------

   CUMULATIVE VOLUMES               L**3   RATES FOR THIS TIME STEP           L**3/T
   ------------------                      ------------------------

                                     IN                                         IN
                                     --                                         --
        PRECIPITATION =        1573762.54          PRECIPITATION =                  
           STREAMFLOW =                               STREAMFLOW =                  
     GW BOUNDARY FLOW =                         GW BOUNDARY FLOW =                  


                                    OUT                                        OUT
                                    ---                                        ---
   EVAPOTRANSPIRATION =        1208464.75     EVAPOTRANSPIRATION =          16385.69
           STREAMFLOW =         373312.49             STREAMFLOW =           9232.39
     GW BOUNDARY FLOW =          31789.79       GW BOUNDARY FLOW =            648.86

   INFLOWS - OUTFLOWS =         -39804.48     INFLOWS - OUTFLOWS =         -26266.94
             --------                                   --------

 TOTAL STORAGE CHANGE =         -36101.97         STORAGE CHANGE =         -26164.93
       --------------                             --------------
         LAND SURFACE =           8139.47           LAND SURFACE =          -4965.50
            SOIL ZONE =        1017327.98              SOIL ZONE =           -364.29
     UNSATURATED ZONE =        -903046.88       UNSATURATED ZONE =         -16045.69
       SATURATED ZONE =        -158522.55         SATURATED ZONE =          -4789.44

 OVERALL BUDGET ERROR =          -3702.51           BUDGET ERROR =           -102.01


  PERCENT DISCREPANCY =             -0.23    PERCENT DISCREPANCY =             -0.39



1
 SUMMARY VOLUMETRIC BUDGET FOR GSFLOW 
 DATE: 11 25 1980              CUMULATIVE TIME STEP:      56
 MODFLOW STRESS PERIOD      2     CURRENT TIME STEP:      56     ITERATIONS:       7

 -----------------------------------------------------------------------------------

   CUMULATIVE VOLUMES               L**3   RATES FOR THIS TIME STEP           L**3/T
   ------------------                      ------------------------

                                     IN                                         IN
                                     --                                         --
        PRECIPITATION =        1648816.13          PRECIPITATION =                  
           STREAMFLOW =                               STREAMFLOW =                  
     GW BOUNDARY FLOW =                         GW BOUNDARY FLOW =                  


                                    OUT                                        OUT
                                    ---                                        ---
   EVAPOTRANSPIRATION =        1290475.82     EVAPOTRANSPIRATION =           9281.23
           STREAMFLOW =         438203.34             STREAMFLOW =           9377.35
     GW BOUNDARY FLOW =          36331.83       GW BOUNDARY FLOW =            648.87

   INFLOWS - OUTFLOWS =        -116194.87     INFLOWS - OUTFLOWS =         -19307.45
             --------                                   --------

 TOTAL STORAGE CHANGE =        -111847.63         STORAGE CHANGE =         -19225.97
       --------------                             --------------
         LAND SURFACE =          54136.53           LAND SURFACE =          -9258.02
            SOIL ZONE =        1041482.76              SOIL ZONE =          10855.50
     UNSATURATED ZONE =       -1012752.18       UNSATURATED ZONE =         -15411.67
       SATURATED ZONE =        -194714.74         SATURATED ZONE =          -5411.79

 OVERALL BUDGET ERROR =          -4347.24           BUDGET ERROR =            -81.48


  PERCENT DISCREPANCY =             -0.25    PERCENT DISCREPANCY =             -0.42



1
 SUMMARY VOLUMETRIC BUDGET FOR GSFLOW 
 DATE: 12 02 1980              CUMULATIVE TIME STEP:      63
 MODFLOW STRESS PERIOD      2     CURRENT TIME STEP:      63     ITERATIONS:       8

 -----------------------------------------------------------------------------------

   CUMULATIVE VOLUMES               L**3   RATES FOR THIS TIME STEP           L**3/T
   ------------------                      ------------------------

                                     IN                                         IN
                                     --                                         --
        PRECIPITATION =        2076621.55          PRECIPITATION =                  
           STREAMFLOW =                               STREAMFLOW =                  
     GW BOUNDARY FLOW =                         GW BOUNDARY FLOW =                  


                                    OUT                                        OUT
                                    ---                                        ---
   EVAPOTRANSPIRATION =        1479144.02     EVAPOTRANSPIRATION =          32848.88
           STREAMFLOW =         515624.85             STREAMFLOW =          13751.05
     GW BOUNDARY FLOW =          40874.93       GW BOUNDARY FLOW =            649.28

   INFLOWS - OUTFLOWS =          40977.75     INFLOWS - OUTFLOWS =         -47249.21
             --------                                   --------

 TOTAL STORAGE CHANGE =          45785.52         STORAGE CHANGE =         -47194.29
       --------------                             --------------
         LAND SURFACE =         157031.19           LAND SURFACE =         -76789.76
            SOIL ZONE =        1235963.38              SOIL ZONE =          47653.62
     UNSATURATED ZONE =       -1115155.29       UNSATURATED ZONE =         -13248.25
       SATURATED ZONE =        -232053.77         SATURATED ZONE =          -4809.90

 OVERALL BUDGET ERROR =          -4807.77           BUDGET ERROR =            -54.91


  PERCENT DISCREPANCY =             -0.23    PERCENT DISCREPANCY =             -0.12



1
 SUMMARY VOLUMETRIC BUDGET FOR GSFLOW 
 DATE: 12 09 1980              CUMULATIVE TIME STEP:      70
 MODFLOW STRESS PERIOD      2     CURRENT TIME STEP:      70     ITERATIONS:       7

 -----------------------------------------------------------------------------------

   CUMULATIVE VOLUMES               L**3   RATES FOR THIS TIME STEP           L**3/T
   ------------------                      ------------------------

                                     IN                                         IN
                                     --                                         --
        PRECIPITATION =        4284363.63          PRECIPITATION =                  
           STREAMFLOW =                               STREAMFLOW =                  
     GW BOUNDARY FLOW =                         GW BOUNDARY FLOW =                  


                                    OUT                                        OUT
                                    ---                                        ---
   EVAPOTRANSPIRATION =        1504782.80     EVAPOTRANSPIRATION =           3258.35
           STREAMFLOW =         605690.99             STREAMFLOW =          13238.71
     GW BOUNDARY FLOW =          45420.58       GW BOUNDARY FLOW =            649.47

   INFLOWS - OUTFLOWS =        2128469.26     INFLOWS - OUTFLOWS =         -17146.54
             --------                                   --------

 TOTAL STORAGE CHANGE =        2133770.49         STORAGE CHANGE =         -17072.61
       --------------                             --------------
         LAND SURFACE =        2337504.37           LAND SURFACE =          -3258.35
            SOIL ZONE =        1281522.79              SOIL ZONE =           6327.28
     UNSATURATED ZONE =       -1213903.89       UNSATURATED ZONE =         -14232.65
       SATURATED ZONE =        -271352.78         SATURATED ZONE =          -5908.89

 OVERALL BUDGET ERROR =          -5301.23           BUDGET ERROR =            -73.93


  PERCENT DISCREPANCY =             -0.12    PERCENT DISCREPANCY =             -0.43



1
 SUMMARY VOLUMETRIC BUDGET FOR GSFLOW 
 DATE: 12 16 1980              CUMULATIVE TIME STEP:      77
 MODFLOW STRESS PERIOD      2     CURRENT TIME STEP:      77     ITERATIONS:       7

 -----------------------------------------------------------------------------------

   CUMULATIVE VOLUMES               L**3   RATES FOR THIS TIME STEP           L**3/T
   ------------------                      ------------------------

                                     IN                                         IN
                                     --                                         --
        PRECIPITATION =        4284363.63          PRECIPITATION =                  
           STREAMFLOW =                               STREAMFLOW =                  
     GW BOUNDARY FLOW =                         GW BOUNDARY FLOW =                  


                                    OUT                                        OUT
                                    ---                                        ---
   EVAPOTRANSPIRATION =        1648784.20     EVAPOTRANSPIRATION =          33864.49
           STREAMFLOW =         716142.47             STREAMFLOW =          23003.79
     GW BOUNDARY FLOW =          49967.99       GW BOUNDARY FLOW =            650.05

   INFLOWS - OUTFLOWS =        1869468.97     INFLOWS - OUTFLOWS =         -57518.33
             --------                                   --------

 TOTAL STORAGE CHANGE =        1875256.22         STORAGE CHANGE =         -57451.83
       --------------                             --------------
         LAND SURFACE =        2017009.19           LAND SURFACE =        -133032.47
            SOIL ZONE =        1475700.83              SOIL ZONE =          89898.33
     UNSATURATED ZONE =       -1305039.96       UNSATURATED ZONE =          -9633.25
       SATURATED ZONE =        -312413.84         SATURATED ZONE =          -4684.44

 OVERALL BUDGET ERROR =          -5787.25           BUDGET ERROR =            -66.50


  PERCENT DISCREPANCY =             -0.13    PERCENT DISCREPANCY =             -0.12



1
 SUMMARY VOLUMETRIC BUDGET FOR GSFLOW 
 DATE: 12 23 1980              CUMULATIVE TIME STEP:      84
 MODFLOW STRESS PERIOD      2     CURRENT TIME STEP:      84     ITERATIONS:       9

 -----------------------------------------------------------------------------------

   CUMULATIVE VOLUMES               L**3   RATES FOR THIS TIME STEP           L**3/T
   ------------------                      ------------------------

                                     IN                                         IN
                                     --                                         --
        PRECIPITATION =        4516757.54          PRECIPITATION =                  
           STREAMFLOW =                               STREAMFLOW =                  
     GW BOUNDARY FLOW =                         GW BOUNDARY FLOW =                  


                                    OUT                                        OUT
                                    ---                                        ---
   EVAPOTRANSPIRATION =        1841438.83     EVAPOTRANSPIRATION =          33322.86
           STREAMFLOW =         939138.27             STREAMFLOW =          30640.92
     GW BOUNDARY FLOW =          54527.53       GW BOUNDARY FLOW =            651.91

   INFLOWS - OUTFLOWS =        1681652.91     INFLOWS - OUTFLOWS =         -64615.69
             --------                                   --------

 TOTAL STORAGE CHANGE =        1687756.02         STORAGE CHANGE =         -64574.81
       --------------                             --------------
         LAND SURFACE =        1383036.34           LAND SURFACE =         -50553.56
            SOIL ZONE =        1994264.96              SOIL ZONE =          -3479.64
     UNSATURATED ZONE =       -1348854.92       UNSATURATED ZONE =          -6140.84
       SATURATED ZONE =        -340690.37         SATURATED ZONE =          -4400.77

 OVERALL BUDGET ERROR =          -6103.11           BUDGET ERROR =            -40.88


  PERCENT DISCREPANCY =             -0.14    PERCENT DISCREPANCY =             -0.06



1
 SUMMARY VOLUMETRIC BUDGET FOR GSFLOW 
 DATE: 12 30 1980              CUMULATIVE TIME STEP:      91
 MODFLOW STRESS PERIOD      2     CURRENT TIME STEP:      91     ITERATIONS:      10

 -----------------------------------------------------------------------------------

   CUMULATIVE VOLUMES               L**3   RATES FOR THIS TIME STEP           L**3/T
   ------------------                      ------------------------

                                     IN                                         IN
                                     --                                         --
        PRECIPITATION =        4516757.54          PRECIPITATION =                  
           STREAMFLOW =                               STREAMFLOW =                  
     GW BOUNDARY FLOW =                         GW BOUNDARY FLOW =                  


                                    OUT                                        OUT
                                    ---                                        ---
   EVAPOTRANSPIRATION =        2155596.53     EVAPOTRANSPIRATION =          41222.91
           STREAMFLOW =        1190543.15             STREAMFLOW =          28505.54
     GW BOUNDARY FLOW =          59094.50       GW BOUNDARY FLOW =            652.45

   INFLOWS - OUTFLOWS =        1111523.36     INFLOWS - OUTFLOWS =         -70380.91
             --------                                   --------

 TOTAL STORAGE CHANGE =        1117802.48         STORAGE CHANGE =         -70357.46
       --------------                             --------------
         LAND SURFACE =         578000.37           LAND SURFACE =         -42011.43
            SOIL ZONE =        2259971.85              SOIL ZONE =         -21403.12
     UNSATURATED ZONE =       -1354600.68       UNSATURATED ZONE =          -2795.19
       SATURATED ZONE =        -365569.06         SATURATED ZONE =          -4147.72

 OVERALL BUDGET ERROR =          -6279.12           BUDGET ERROR =            -23.44


  PERCENT DISCREPANCY =             -0.14    PERCENT DISCREPANCY =             -0.03



1
 SUMMARY VOLUMETRIC BUDGET FOR GSFLOW 
 DATE: 01 06 1981              CUMULATIVE TIME STEP:      98
 MODFLOW STRESS PERIOD      2     CURRENT TIME STEP:      98     ITERATIONS:       8

 -----------------------------------------------------------------------------------

   CUMULATIVE VOLUMES               L**3   RATES FOR THIS TIME STEP           L**3/T
   ------------------                      ------------------------

                                     IN                                         IN
                                     --                                         --
        PRECIPITATION =        5004445.43          PRECIPITATION =                  
           STREAMFLOW =                               STREAMFLOW =                  
     GW BOUNDARY FLOW =                         GW BOUNDARY FLOW =                  


                                    OUT                                        OUT
                                    ---                                        ---
   EVAPOTRANSPIRATION =        2355309.87     EVAPOTRANSPIRATION =          18967.97
           STREAMFLOW =        1344012.31             STREAMFLOW =          20576.90
     GW BOUNDARY FLOW =          63656.11       GW BOUNDARY FLOW =            651.19

   INFLOWS - OUTFLOWS =        1241467.13     INFLOWS - OUTFLOWS =         -40196.06
             --------                                   --------

 TOTAL STORAGE CHANGE =        1247929.53         STORAGE CHANGE =         -40165.22
       --------------                             --------------
         LAND SURFACE =         839153.53           LAND SURFACE =         -25670.38
            SOIL ZONE =        2229089.18              SOIL ZONE =           2288.03
     UNSATURATED ZONE =       -1417003.04       UNSATURATED ZONE =         -11044.85
       SATURATED ZONE =        -403310.14         SATURATED ZONE =          -5738.01

 OVERALL BUDGET ERROR =          -6462.39           BUDGET ERROR =            -30.84


  PERCENT DISCREPANCY =             -0.13    PERCENT DISCREPANCY =             -0.08



1
 SUMMARY VOLUMETRIC BUDGET FOR GSFLOW 
 DATE: 01 13 1981              CUMULATIVE TIME STEP:     105
 MODFLOW STRESS PERIOD      2     CURRENT TIME STEP:     105     ITERATIONS:       7

 -----------------------------------------------------------------------------------

   CUMULATIVE VOLUMES               L**3   RATES FOR THIS TIME STEP           L**3/T
   ------------------                      ------------------------

                                     IN                                         IN
                                     --                                         --
        PRECIPITATION =        5004445.43          PRECIPITATION =                  
           STREAMFLOW =                               STREAMFLOW =                  
     GW BOUNDARY FLOW =                         GW BOUNDARY FLOW =                  


                                    OUT                                        OUT
                                    ---                                        ---
   EVAPOTRANSPIRATION =        2552056.38     EVAPOTRANSPIRATION =          40920.23
           STREAMFLOW =        1496937.61             STREAMFLOW =          22240.92
     GW BOUNDARY FLOW =          68213.37       GW BOUNDARY FLOW =            650.97

   INFLOWS - OUTFLOWS =         887238.08     INFLOWS - OUTFLOWS =         -63812.12
             --------                                   --------

 TOTAL STORAGE CHANGE =         894064.22         STORAGE CHANGE =         -63757.75
       --------------                             --------------
         LAND SURFACE =         591944.46           LAND SURFACE =         -46174.11
            SOIL ZONE =        2224601.59              SOIL ZONE =          -4684.85
     UNSATURATED ZONE =       -1477215.63       UNSATURATED ZONE =          -6755.58
       SATURATED ZONE =        -445266.19         SATURATED ZONE =          -6143.22

 OVERALL BUDGET ERROR =          -6826.15           BUDGET ERROR =            -54.37


  PERCENT DISCREPANCY =             -0.14    PERCENT DISCREPANCY =             -0.09



1
 SUMMARY VOLUMETRIC BUDGET FOR GSFLOW 
 DATE: 01 20 1981              CUMULATIVE TIME STEP:     112
 MODFLOW STRESS PERIOD      2     CURRENT TIME STEP:     112     ITERATIONS:       8

 -----------------------------------------------------------------------------------

   CUMULATIVE VOLUMES               L**3   RATES FOR THIS TIME STEP           L**3/T
   ------------------                      ------------------------

                                     IN                                         IN
                                     --                                         --
        PRECIPITATION =        5170466.84          PRECIPITATION =          41505.35
           STREAMFLOW =                               STREAMFLOW =                  
     GW BOUNDARY FLOW =                         GW BOUNDARY FLOW =                  


                                    OUT                                        OUT
                                    ---                                        ---
   EVAPOTRANSPIRATION =        2812096.17     EVAPOTRANSPIRATION =          30813.16
           STREAMFLOW =        1641491.27             STREAMFLOW =          20053.12
     GW BOUNDARY FLOW =          72768.64       GW BOUNDARY FLOW =            650.64

   INFLOWS - OUTFLOWS =         644110.76     INFLOWS - OUTFLOWS =         -10011.57
             --------                                   --------

 TOTAL STORAGE CHANGE =         651283.94         STORAGE CHANGE =          -9973.65
       --------------                             --------------
         LAND SURFACE =         441730.68           LAND SURFACE =           9579.33
            SOIL ZONE =        2201788.27              SOIL ZONE =         -11360.98
     UNSATURATED ZONE =       -1503664.54       UNSATURATED ZONE =          -1656.78
       SATURATED ZONE =        -488570.46         SATURATED ZONE =          -6535.21

 OVERALL BUDGET ERROR =          -7173.18           BUDGET ERROR =            -37.92


  PERCENT DISCREPANCY =             -0.14    PERCENT DISCREPANCY =             -0.07



1
 SUMMARY VOLUMETRIC BUDGET FOR GSFLOW 
 DATE: 01 27 1981              CUMULATIVE TIME STEP:     119
 MODFLOW STRESS PERIOD      2     CURRENT TIME STEP:     119     ITERATIONS:       8

 -----------------------------------------------------------------------------------

   CUMULATIVE VOLUMES               L**3   RATES FOR THIS TIME STEP           L**3/T
   ------------------                      ------------------------

                                     IN                                         IN
                                     --                                         --
        PRECIPITATION =        8646540.08          PRECIPITATION =        2936503.63
           STREAMFLOW =                               STREAMFLOW =                  
     GW BOUNDARY FLOW =                         GW BOUNDARY FLOW =                  


                                    OUT                                        OUT
                                    ---                                        ---
   EVAPOTRANSPIRATION =        3035416.31     EVAPOTRANSPIRATION =          12639.57
           STREAMFLOW =        1784876.34             STREAMFLOW =          18563.00
     GW BOUNDARY FLOW =          77322.76       GW BOUNDARY FLOW =            650.41

   INFLOWS - OUTFLOWS =        3748924.66     INFLOWS - OUTFLOWS =        2904650.65
             --------                                   --------

 TOTAL STORAGE CHANGE =        3756282.98         STORAGE CHANGE =        2904688.79
       --------------                             --------------
         LAND SURFACE =        3576156.46           LAND SURFACE =        2923864.12
            SOIL ZONE =        2208319.74              SOIL ZONE =          -6978.19
     UNSATURATED ZONE =       -1495051.91       UNSATURATED ZONE =          -5422.44
       SATURATED ZONE =        -533141.31         SATURATED ZONE =          -6774.70

 OVERALL BUDGET ERROR =          -7358.32           BUDGET ERROR =            -38.15


  PERCENT DISCREPANCY =             -0.09    PERCENT DISCREPANCY =             -0.00



1
 SUMMARY VOLUMETRIC BUDGET FOR GSFLOW 
 DATE: 02 03 1981              CUMULATIVE TIME STEP:     126
 MODFLOW STRESS PERIOD      2     CURRENT TIME STEP:     126     ITERATIONS:       9

 -----------------------------------------------------------------------------------

   CUMULATIVE VOLUMES               L**3   RATES FOR THIS TIME STEP           L**3/T
   ------------------                      ------------------------

                                     IN                                         IN
                                     --                                         --
        PRECIPITATION =        1.1739D+07          PRECIPITATION =                  
           STREAMFLOW =                               STREAMFLOW =                  
     GW BOUNDARY FLOW =                         GW BOUNDARY FLOW =                  


                                    OUT                                        OUT
                                    ---                                        ---
   EVAPOTRANSPIRATION =        3070607.68     EVAPOTRANSPIRATION =           7106.06
           STREAMFLOW =        1911572.92             STREAMFLOW =          18029.06
     GW BOUNDARY FLOW =          81874.78       GW BOUNDARY FLOW =            650.25

   INFLOWS - OUTFLOWS =        6674633.38     INFLOWS - OUTFLOWS =         -25785.37
             --------                                   --------

 TOTAL STORAGE CHANGE =        6682189.67         STORAGE CHANGE =         -25759.76
       --------------                             --------------
         LAND SURFACE =        6633113.80           LAND SURFACE =          -7106.06
            SOIL ZONE =        2198713.66              SOIL ZONE =            488.16
     UNSATURATED ZONE =       -1565773.57       UNSATURATED ZONE =         -11557.51
       SATURATED ZONE =        -583864.23         SATURATED ZONE =          -7584.35

 OVERALL BUDGET ERROR =          -7556.28           BUDGET ERROR =            -25.61


  PERCENT DISCREPANCY =             -0.06    PERCENT DISCREPANCY =             -0.10



1
 SUMMARY VOLUMETRIC BUDGET FOR GSFLOW 
 DATE: 02 10 1981              CUMULATIVE TIME STEP:     133
 MODFLOW STRESS PERIOD      2     CURRENT TIME STEP:     133     ITERATIONS:       7

 -----------------------------------------------------------------------------------

   CUMULATIVE VOLUMES               L**3   RATES FOR THIS TIME STEP           L**3/T
   ------------------                      ------------------------

                                     IN                                         IN
                                     --                                         --
        PRECIPITATION =        1.1838D+07          PRECIPITATION =                  
           STREAMFLOW =                               STREAMFLOW =                  
     GW BOUNDARY FLOW =                         GW BOUNDARY FLOW =                  


                                    OUT                                        OUT
                                    ---                                        ---
   EVAPOTRANSPIRATION =        3191711.19     EVAPOTRANSPIRATION =          32343.27
           STREAMFLOW =        2038035.65             STREAMFLOW =          18092.21
     GW BOUNDARY FLOW =          86426.56       GW BOUNDARY FLOW =            650.25

   INFLOWS - OUTFLOWS =        6522079.87     INFLOWS - OUTFLOWS =         -51085.73
             --------                                   --------

 TOTAL STORAGE CHANGE =        6529963.62         STORAGE CHANGE =         -51015.39
       --------------                             --------------
         LAND SURFACE =        6611574.79           LAND SURFACE =         -32343.27
            SOIL ZONE =        2202752.71              SOIL ZONE =            509.06
     UNSATURATED ZONE =       -1643962.15       UNSATURATED ZONE =         -10823.41
       SATURATED ZONE =        -640401.73         SATURATED ZONE =          -8357.76

 OVERALL BUDGET ERROR =          -7883.75           BUDGET ERROR =            -70.34


  PERCENT DISCREPANCY =             -0.07    PERCENT DISCREPANCY =             -0.14



1
 SUMMARY VOLUMETRIC BUDGET FOR GSFLOW 
 DATE: 02 17 1981              CUMULATIVE TIME STEP:     140
 MODFLOW STRESS PERIOD      2     CURRENT TIME STEP:     140     ITERATIONS:      14

 -----------------------------------------------------------------------------------

   CUMULATIVE VOLUMES               L**3   RATES FOR THIS TIME STEP           L**3/T
   ------------------                      ------------------------

                                     IN                                         IN
                                     --                                         --
        PRECIPITATION =        1.2765D+07          PRECIPITATION =          68929.28
           STREAMFLOW =                               STREAMFLOW =                  
     GW BOUNDARY FLOW =                         GW BOUNDARY FLOW =                  


                                    OUT                                        OUT
                                    ---                                        ---
   EVAPOTRANSPIRATION =        3512672.61     EVAPOTRANSPIRATION =          57064.08
           STREAMFLOW =        2560306.87             STREAMFLOW =         122557.76
     GW BOUNDARY FLOW =          90999.43       GW BOUNDARY FLOW =            656.68

   INFLOWS - OUTFLOWS =        6600990.20     INFLOWS - OUTFLOWS =        -111349.25
             --------                                   --------

 TOTAL STORAGE CHANGE =        6609123.93         STORAGE CHANGE =        -111348.90
       --------------                             --------------
         LAND SURFACE =        5715890.69           LAND SURFACE =        -263533.59
            SOIL ZONE =        2956909.44              SOIL ZONE =          72387.90
     UNSATURATED ZONE =       -1405288.95       UNSATURATED ZONE =          77532.83
       SATURATED ZONE =        -658387.25         SATURATED ZONE =           2263.97

 OVERALL BUDGET ERROR =          -8133.73           BUDGET ERROR =             -0.34


  PERCENT DISCREPANCY =             -0.06    PERCENT DISCREPANCY =             -0.00



1
 SUMMARY VOLUMETRIC BUDGET FOR GSFLOW 
 DATE: 02 24 1981              CUMULATIVE TIME STEP:     147
 MODFLOW STRESS PERIOD      2     CURRENT TIME STEP:     147     ITERATIONS:      14

 -----------------------------------------------------------------------------------

   CUMULATIVE VOLUMES               L**3   RATES FOR THIS TIME STEP           L**3/T
   ------------------                      ------------------------

                                     IN                                         IN
                                     --                                         --
        PRECIPITATION =        1.3179D+07          PRECIPITATION =         344646.37
           STREAMFLOW =                               STREAMFLOW =                  
     GW BOUNDARY FLOW =                         GW BOUNDARY FLOW =                  


                                    OUT                                        OUT
                                    ---                                        ---
   EVAPOTRANSPIRATION =        3821583.21     EVAPOTRANSPIRATION =          18156.56
           STREAMFLOW =        3127027.13             STREAMFLOW =          52359.56
     GW BOUNDARY FLOW =          95593.50       GW BOUNDARY FLOW =            655.34

   INFLOWS - OUTFLOWS =        6134340.91     INFLOWS - OUTFLOWS =         273474.91
             --------                                   --------

 TOTAL STORAGE CHANGE =        6142393.41         STORAGE CHANGE =         273465.37
       --------------                             --------------
         LAND SURFACE =        5114626.44           LAND SURFACE =         302136.78
            SOIL ZONE =        2703034.82              SOIL ZONE =         -61123.92
     UNSATURATED ZONE =       -1040425.47       UNSATURATED ZONE =          30049.14
       SATURATED ZONE =        -634842.38         SATURATED ZONE =           2403.38

 OVERALL BUDGET ERROR =          -8052.50           BUDGET ERROR =              9.54


  PERCENT DISCREPANCY =             -0.06    PERCENT DISCREPANCY =              0.00



1
 SUMMARY VOLUMETRIC BUDGET FOR GSFLOW 
 DATE: 03 03 1981              CUMULATIVE TIME STEP:     154
 MODFLOW STRESS PERIOD      2     CURRENT TIME STEP:     154     ITERATIONS:      11

 -----------------------------------------------------------------------------------

   CUMULATIVE VOLUMES               L**3   RATES FOR THIS TIME STEP           L**3/T
   ------------------                      ------------------------

                                     IN                                         IN
                                     --                                         --
        PRECIPITATION =        1.3447D+07          PRECIPITATION =                  
           STREAMFLOW =                               STREAMFLOW =                  
     GW BOUNDARY FLOW =                         GW BOUNDARY FLOW =                  


                                    OUT                                        OUT
                                    ---                                        ---
   EVAPOTRANSPIRATION =        3968297.69     EVAPOTRANSPIRATION =          40572.52
           STREAMFLOW =        3351914.02             STREAMFLOW =          27534.75
     GW BOUNDARY FLOW =         100166.67       GW BOUNDARY FLOW =            652.31

   INFLOWS - OUTFLOWS =        6026224.65     INFLOWS - OUTFLOWS =         -68759.58
             --------                                   --------

 TOTAL STORAGE CHANGE =        6034152.11         STORAGE CHANGE =         -68774.62
       --------------                             --------------
         LAND SURFACE =        5215950.03           LAND SURFACE =         -58695.50
            SOIL ZONE =        2487546.71              SOIL ZONE =            791.52
     UNSATURATED ZONE =       -1031516.48       UNSATURATED ZONE =          -9170.68
       SATURATED ZONE =        -637828.15         SATURATED ZONE =          -1699.96

 OVERALL BUDGET ERROR =          -7927.46           BUDGET ERROR =             15.04


  PERCENT DISCREPANCY =             -0.06    PERCENT DISCREPANCY =              0.02



1
 SUMMARY VOLUMETRIC BUDGET FOR GSFLOW 
 DATE: 03 10 1981              CUMULATIVE TIME STEP:     161
 MODFLOW STRESS PERIOD      2     CURRENT TIME STEP:     161     ITERATIONS:      10

 -----------------------------------------------------------------------------------

   CUMULATIVE VOLUMES               L**3   RATES FOR THIS TIME STEP           L**3/T
   ------------------                      ------------------------

                                     IN                                         IN
                                     --                                         --
        PRECIPITATION =        1.3493D+07          PRECIPITATION =                  
           STREAMFLOW =                               STREAMFLOW =                  
     GW BOUNDARY FLOW =                         GW BOUNDARY FLOW =                  


                                    OUT                                        OUT
                                    ---                                        ---
   EVAPOTRANSPIRATION =        4258687.57     EVAPOTRANSPIRATION =          60221.81
           STREAMFLOW =        3581775.04             STREAMFLOW =          42857.30
     GW BOUNDARY FLOW =         104732.18       GW BOUNDARY FLOW =            652.84

   INFLOWS - OUTFLOWS =        5547746.37     INFLOWS - OUTFLOWS =        -103731.95
             --------                                   --------

 TOTAL STORAGE CHANGE =        5555582.00         STORAGE CHANGE =        -103747.90
       --------------                             --------------
         LAND SURFACE =        4625651.75           LAND SURFACE =        -150436.00
            SOIL ZONE =        2595901.01              SOIL ZONE =          29644.85
     UNSATURATED ZONE =       -1015822.96       UNSATURATED ZONE =          17694.47
       SATURATED ZONE =        -650147.80         SATURATED ZONE =           -651.22

 OVERALL BUDGET ERROR =          -7835.63           BUDGET ERROR =             15.95


  PERCENT DISCREPANCY =             -0.06    PERCENT DISCREPANCY =              0.02



1
 SUMMARY VOLUMETRIC BUDGET FOR GSFLOW 
 DATE: 03 17 1981              CUMULATIVE TIME STEP:     168
 MODFLOW STRESS PERIOD      2     CURRENT TIME STEP:     168     ITERATIONS:       9

 -----------------------------------------------------------------------------------

   CUMULATIVE VOLUMES               L**3   RATES FOR THIS TIME STEP           L**3/T
   ------------------                      ------------------------

                                     IN                                         IN
                                     --                                         --
        PRECIPITATION =        1.3744D+07          PRECIPITATION =                  
           STREAMFLOW =                               STREAMFLOW =                  
     GW BOUNDARY FLOW =                         GW BOUNDARY FLOW =                  


                                    OUT                                        OUT
                                    ---                                        ---
   EVAPOTRANSPIRATION =        4573348.22     EVAPOTRANSPIRATION =          33262.65
           STREAMFLOW =        3808000.60             STREAMFLOW =          24200.26
     GW BOUNDARY FLOW =         109299.26       GW BOUNDARY FLOW =            651.87

   INFLOWS - OUTFLOWS =        5253842.81     INFLOWS - OUTFLOWS =         -58114.78
             --------                                   --------

 TOTAL STORAGE CHANGE =        5261603.84         STORAGE CHANGE =         -58117.08
       --------------                             --------------
         LAND SURFACE =        4487181.82           LAND SURFACE =         -32994.50
            SOIL ZONE =        2442506.63              SOIL ZONE =          -6009.93
     UNSATURATED ZONE =       -1001284.84       UNSATURATED ZONE =         -14838.36
       SATURATED ZONE =        -666799.76         SATURATED ZONE =          -4274.29

 OVERALL BUDGET ERROR =          -7761.04           BUDGET ERROR =              2.31


  PERCENT DISCREPANCY =             -0.06    PERCENT DISCREPANCY =              0.00



1
 SUMMARY VOLUMETRIC BUDGET FOR GSFLOW 
 DATE: 03 24 1981              CUMULATIVE TIME STEP:     175
 MODFLOW STRESS PERIOD      2     CURRENT TIME STEP:     175     ITERATIONS:       9

 -----------------------------------------------------------------------------------

   CUMULATIVE VOLUMES               L**3   RATES FOR THIS TIME STEP           L**3/T
   ------------------                      ------------------------

                                     IN                                         IN
                                     --                                         --
        PRECIPITATION =        1.4367D+07          PRECIPITATION =                  
           STREAMFLOW =                               STREAMFLOW =                  
     GW BOUNDARY FLOW =                         GW BOUNDARY FLOW =                  


                                    OUT                                        OUT
                                    ---                                        ---
   EVAPOTRANSPIRATION =        4893171.49     EVAPOTRANSPIRATION =          80764.16
           STREAMFLOW =        3978311.18             STREAMFLOW =          26943.60
     GW BOUNDARY FLOW =         113859.26       GW BOUNDARY FLOW =            651.39

   INFLOWS - OUTFLOWS =        5381403.59     INFLOWS - OUTFLOWS =        -108359.15
             --------                                   --------

 TOTAL STORAGE CHANGE =        5389174.43         STORAGE CHANGE =        -108354.14
       --------------                             --------------
         LAND SURFACE =        4817015.04           LAND SURFACE =         -67964.32
            SOIL ZONE =        2354919.51              SOIL ZONE =         -30876.55
     UNSATURATED ZONE =       -1081846.22       UNSATURATED ZONE =          -4717.49
       SATURATED ZONE =        -700913.91         SATURATED ZONE =          -4795.79

 OVERALL BUDGET ERROR =          -7770.83           BUDGET ERROR =             -5.01


  PERCENT DISCREPANCY =             -0.05    PERCENT DISCREPANCY =             -0.00



1
 SUMMARY VOLUMETRIC BUDGET FOR GSFLOW 
 DATE: 03 31 1981              CUMULATIVE TIME STEP:     182
 MODFLOW STRESS PERIOD      2     CURRENT TIME STEP:     182     ITERATIONS:      12

 -----------------------------------------------------------------------------------

   CUMULATIVE VOLUMES               L**3   RATES FOR THIS TIME STEP           L**3/T
   ------------------                      ------------------------

                                     IN                                         IN
                                     --                                         --
        PRECIPITATION =        1.5777D+07          PRECIPITATION =                  
           STREAMFLOW =                               STREAMFLOW =                  
     GW BOUNDARY FLOW =                         GW BOUNDARY FLOW =                  


                                    OUT                                        OUT
                                    ---                                        ---
   EVAPOTRANSPIRATION =        5281344.77     EVAPOTRANSPIRATION =          42424.05
           STREAMFLOW =        4453052.82             STREAMFLOW =          35783.57
     GW BOUNDARY FLOW =         118439.26       GW BOUNDARY FLOW =            653.41

   INFLOWS - OUTFLOWS =        5923911.14     INFLOWS - OUTFLOWS =         -78861.03
             --------                                   --------

 TOTAL STORAGE CHANGE =        5931596.38         STORAGE CHANGE =         -78879.56
       --------------                             --------------
         LAND SURFACE =        4993002.71           LAND SURFACE =         -43256.98
            SOIL ZONE =        2521979.77              SOIL ZONE =         -37097.53
     UNSATURATED ZONE =        -884333.47       UNSATURATED ZONE =           3086.02
       SATURATED ZONE =        -699052.62         SATURATED ZONE =          -1611.06

 OVERALL BUDGET ERROR =          -7685.24           BUDGET ERROR =             18.53


  PERCENT DISCREPANCY =             -0.05    PERCENT DISCREPANCY =              0.02



1
 SUMMARY VOLUMETRIC BUDGET FOR GSFLOW 
 DATE: 04 07 1981              CUMULATIVE TIME STEP:     189
 MODFLOW STRESS PERIOD      2     CURRENT TIME STEP:     189     ITERATIONS:      10

 -----------------------------------------------------------------------------------

   CUMULATIVE VOLUMES               L**3   RATES FOR THIS TIME STEP           L**3/T
   ------------------                      ------------------------

                                     IN                                         IN
                                     --                                         --
        PRECIPITATION =        1.6121D+07          PRECIPITATION =                  
           STREAMFLOW =                               STREAMFLOW =                  
     GW BOUNDARY FLOW =                         GW BOUNDARY FLOW =                  


                                    OUT                                        OUT
                                    ---                                        ---
   EVAPOTRANSPIRATION =        5875793.56     EVAPOTRANSPIRATION =          97287.85
           STREAMFLOW =        4767219.60             STREAMFLOW =          44158.19
     GW BOUNDARY FLOW =         123013.88       GW BOUNDARY FLOW =            653.77

   INFLOWS - OUTFLOWS =        5355440.57     INFLOWS - OUTFLOWS =        -142099.81
             --------                                   --------

 TOTAL STORAGE CHANGE =        5363017.19         STORAGE CHANGE =        -142122.06
       --------------                             --------------
         LAND SURFACE =        4406920.28           LAND SURFACE =        -136036.64
            SOIL ZONE =        2473603.46              SOIL ZONE =         -17448.00
     UNSATURATED ZONE =        -816880.11       UNSATURATED ZONE =          11217.01
       SATURATED ZONE =        -700626.44         SATURATED ZONE =            145.57

 OVERALL BUDGET ERROR =          -7576.62           BUDGET ERROR =             22.25


  PERCENT DISCREPANCY =             -0.05    PERCENT DISCREPANCY =              0.02



1
 SUMMARY VOLUMETRIC BUDGET FOR GSFLOW 
 DATE: 04 14 1981              CUMULATIVE TIME STEP:     196
 MODFLOW STRESS PERIOD      2     CURRENT TIME STEP:     196     ITERATIONS:      13

 -----------------------------------------------------------------------------------

   CUMULATIVE VOLUMES               L**3   RATES FOR THIS TIME STEP           L**3/T
   ------------------                      ------------------------

                                     IN                                         IN
                                     --                                         --
        PRECIPITATION =        1.6121D+07          PRECIPITATION =                  
           STREAMFLOW =                               STREAMFLOW =                  
     GW BOUNDARY FLOW =                         GW BOUNDARY FLOW =                  


                                    OUT                                        OUT
                                    ---                                        ---
   EVAPOTRANSPIRATION =        6739222.68     EVAPOTRANSPIRATION =         187136.51
           STREAMFLOW =        5104128.12             STREAMFLOW =          59411.76
     GW BOUNDARY FLOW =         127590.10       GW BOUNDARY FLOW =            653.95

   INFLOWS - OUTFLOWS =        4150526.71     INFLOWS - OUTFLOWS =        -247202.22
             --------                                   --------

 TOTAL STORAGE CHANGE =        4157981.85         STORAGE CHANGE =        -247214.62
       --------------                             --------------
         LAND SURFACE =        3161053.21           LAND SURFACE =        -267068.64
            SOIL ZONE =        2408072.45              SOIL ZONE =          -6918.29
     UNSATURATED ZONE =        -716077.00       UNSATURATED ZONE =          24233.85
       SATURATED ZONE =        -695066.80         SATURATED ZONE =           2538.46

 OVERALL BUDGET ERROR =          -7455.14           BUDGET ERROR =             12.40


  PERCENT DISCREPANCY =             -0.05    PERCENT DISCREPANCY =              0.01



1
 SUMMARY VOLUMETRIC BUDGET FOR GSFLOW 
 DATE: 04 21 1981              CUMULATIVE TIME STEP:     203
 MODFLOW STRESS PERIOD      2     CURRENT TIME STEP:     203     ITERATIONS:      14

 -----------------------------------------------------------------------------------

   CUMULATIVE VOLUMES               L**3   RATES FOR THIS TIME STEP           L**3/T
   ------------------                      ------------------------

                                     IN                                         IN
                                     --                                         --
        PRECIPITATION =        1.6310D+07          PRECIPITATION =                  
           STREAMFLOW =                               STREAMFLOW =                  
     GW BOUNDARY FLOW =                         GW BOUNDARY FLOW =                  


                                    OUT                                        OUT
                                    ---                                        ---
   EVAPOTRANSPIRATION =        7768692.54     EVAPOTRANSPIRATION =         146094.84
           STREAMFLOW =        5480342.58             STREAMFLOW =          52377.19
     GW BOUNDARY FLOW =         132164.12       GW BOUNDARY FLOW =            653.06

   INFLOWS - OUTFLOWS =        2929043.40     INFLOWS - OUTFLOWS =        -199125.09
             --------                                   --------

 TOTAL STORAGE CHANGE =        2936374.29         STORAGE CHANGE =        -199141.57
       --------------                             --------------
         LAND SURFACE =        1896122.57           LAND SURFACE =        -137232.08
            SOIL ZONE =        2286207.17              SOIL ZONE =         -87498.16
     UNSATURATED ZONE =        -572264.74       UNSATURATED ZONE =          21795.46
       SATURATED ZONE =        -673690.70         SATURATED ZONE =           3793.21

 OVERALL BUDGET ERROR =          -7330.90           BUDGET ERROR =             16.49


  PERCENT DISCREPANCY =             -0.04    PERCENT DISCREPANCY =              0.01



1
 SUMMARY VOLUMETRIC BUDGET FOR GSFLOW 
 DATE: 04 28 1981              CUMULATIVE TIME STEP:     210
 MODFLOW STRESS PERIOD      2     CURRENT TIME STEP:     210     ITERATIONS:      14

 -----------------------------------------------------------------------------------

   CUMULATIVE VOLUMES               L**3   RATES FOR THIS TIME STEP           L**3/T
   ------------------                      ------------------------

                                     IN                                         IN
                                     --                                         --
        PRECIPITATION =        1.6515D+07          PRECIPITATION =                  
           STREAMFLOW =                               STREAMFLOW =                  
     GW BOUNDARY FLOW =                         GW BOUNDARY FLOW =                  


                                    OUT                                        OUT
                                    ---                                        ---
   EVAPOTRANSPIRATION =        9000755.32     EVAPOTRANSPIRATION =         204210.98
           STREAMFLOW =        5733236.79             STREAMFLOW =          29650.41
     GW BOUNDARY FLOW =         136727.05       GW BOUNDARY FLOW =            650.93

   INFLOWS - OUTFLOWS =        1644713.72     INFLOWS - OUTFLOWS =        -234512.31
             --------                                   --------

 TOTAL STORAGE CHANGE =        1651898.79         STORAGE CHANGE =        -234529.06
       --------------                             --------------
         LAND SURFACE =        1024372.37           LAND SURFACE =        -106059.65
            SOIL ZONE =        1812565.61              SOIL ZONE =        -132891.24
     UNSATURATED ZONE =        -526470.46       UNSATURATED ZONE =           2630.06
       SATURATED ZONE =        -658568.73         SATURATED ZONE =           1791.78

 OVERALL BUDGET ERROR =          -7185.07           BUDGET ERROR =             16.74


  PERCENT DISCREPANCY =             -0.04    PERCENT DISCREPANCY =              0.01



1
 SUMMARY VOLUMETRIC BUDGET FOR GSFLOW 
 DATE: 05 05 1981              CUMULATIVE TIME STEP:     217
 MODFLOW STRESS PERIOD      2     CURRENT TIME STEP:     217     ITERATIONS:      14

 -----------------------------------------------------------------------------------

   CUMULATIVE VOLUMES               L**3   RATES FOR THIS TIME STEP           L**3/T
   ------------------                      ------------------------

                                     IN                                         IN
                                     --                                         --
        PRECIPITATION =        1.6515D+07          PRECIPITATION =                  
           STREAMFLOW =                               STREAMFLOW =                  
     GW BOUNDARY FLOW =                         GW BOUNDARY FLOW =                  


                                    OUT                                        OUT
                                    ---                                        ---
   EVAPOTRANSPIRATION =        9852711.91     EVAPOTRANSPIRATION =          46767.43
           STREAMFLOW =        5854052.27             STREAMFLOW =          11587.70
     GW BOUNDARY FLOW =         141275.66       GW BOUNDARY FLOW =            649.00

   INFLOWS - OUTFLOWS =         667393.05     INFLOWS - OUTFLOWS =         -59004.13
             --------                                   --------

 TOTAL STORAGE CHANGE =         674496.78         STORAGE CHANGE =         -59019.49
       --------------                             --------------
         LAND SURFACE =         572072.26           LAND SURFACE =         -19135.69
            SOIL ZONE =        1366042.12              SOIL ZONE =         -23134.48
     UNSATURATED ZONE =        -599208.40       UNSATURATED ZONE =         -14602.73
       SATURATED ZONE =        -664409.19         SATURATED ZONE =          -2146.60

 OVERALL BUDGET ERROR =          -7103.74           BUDGET ERROR =             15.36


  PERCENT DISCREPANCY =             -0.04    PERCENT DISCREPANCY =              0.03



1
 SUMMARY VOLUMETRIC BUDGET FOR GSFLOW 
 DATE: 05 12 1981              CUMULATIVE TIME STEP:     224
 MODFLOW STRESS PERIOD      2     CURRENT TIME STEP:     224     ITERATIONS:      12

 -----------------------------------------------------------------------------------

   CUMULATIVE VOLUMES               L**3   RATES FOR THIS TIME STEP           L**3/T
   ------------------                      ------------------------

                                     IN                                         IN
                                     --                                         --
        PRECIPITATION =        1.6515D+07          PRECIPITATION =                  
           STREAMFLOW =                               STREAMFLOW =                  
     GW BOUNDARY FLOW =                         GW BOUNDARY FLOW =                  


                                    OUT                                        OUT
                                    ---                                        ---
   EVAPOTRANSPIRATION =        1.0375D+07     EVAPOTRANSPIRATION =         100949.38
           STREAMFLOW =        5934504.45             STREAMFLOW =          12750.51
     GW BOUNDARY FLOW =         145815.70       GW BOUNDARY FLOW =            648.49

   INFLOWS - OUTFLOWS =          59713.44     INFLOWS - OUTFLOWS =        -114348.38
             --------                                   --------

 TOTAL STORAGE CHANGE =          66784.70         STORAGE CHANGE =        -114350.40
       --------------                             --------------
         LAND SURFACE =         357793.78           LAND SURFACE =         -38759.63
            SOIL ZONE =        1090126.23              SOIL ZONE =         -60505.40
     UNSATURATED ZONE =        -694446.89       UNSATURATED ZONE =         -10896.27
       SATURATED ZONE =        -686688.44         SATURATED ZONE =          -4189.09

 OVERALL BUDGET ERROR =          -7071.26           BUDGET ERROR =              2.02


  PERCENT DISCREPANCY =             -0.04    PERCENT DISCREPANCY =              0.00



1
 SUMMARY VOLUMETRIC BUDGET FOR GSFLOW 
 DATE: 05 19 1981              CUMULATIVE TIME STEP:     231
 MODFLOW STRESS PERIOD      2     CURRENT TIME STEP:     231     ITERATIONS:      20

 -----------------------------------------------------------------------------------

   CUMULATIVE VOLUMES               L**3   RATES FOR THIS TIME STEP           L**3/T
   ------------------                      ------------------------

                                     IN                                         IN
                                     --                                         --
        PRECIPITATION =        1.7837D+07          PRECIPITATION =         169045.43
           STREAMFLOW =                               STREAMFLOW =                  
     GW BOUNDARY FLOW =                         GW BOUNDARY FLOW =                  


                                    OUT                                        OUT
                                    ---                                        ---
   EVAPOTRANSPIRATION =        1.0714D+07     EVAPOTRANSPIRATION =          31098.90
           STREAMFLOW =        6087411.72             STREAMFLOW =          31415.26
     GW BOUNDARY FLOW =         150357.34       GW BOUNDARY FLOW =            649.98

   INFLOWS - OUTFLOWS =         885497.58     INFLOWS - OUTFLOWS =         105881.28
             --------                                   --------

 TOTAL STORAGE CHANGE =         892564.79         STORAGE CHANGE =         105884.75
       --------------                             --------------
         LAND SURFACE =         311384.16           LAND SURFACE =          16932.00
            SOIL ZONE =        2035992.05              SOIL ZONE =          86316.14
     UNSATURATED ZONE =        -735147.67       UNSATURATED ZONE =           6403.04
       SATURATED ZONE =        -719663.75         SATURATED ZONE =          -3766.42

 OVERALL BUDGET ERROR =          -7067.21           BUDGET ERROR =             -3.47


  PERCENT DISCREPANCY =             -0.04    PERCENT DISCREPANCY =             -0.00



1
 SUMMARY VOLUMETRIC BUDGET FOR GSFLOW 
 DATE: 05 26 1981              CUMULATIVE TIME STEP:     238
 MODFLOW STRESS PERIOD      2     CURRENT TIME STEP:     238     ITERATIONS:      17

 -----------------------------------------------------------------------------------

   CUMULATIVE VOLUMES               L**3   RATES FOR THIS TIME STEP           L**3/T
   ------------------                      ------------------------

                                     IN                                         IN
                                     --                                         --
        PRECIPITATION =        1.8252D+07          PRECIPITATION =         284303.67
           STREAMFLOW =                               STREAMFLOW =                  
     GW BOUNDARY FLOW =                         GW BOUNDARY FLOW =                  


                                    OUT                                        OUT
                                    ---                                        ---
   EVAPOTRANSPIRATION =        1.1510D+07     EVAPOTRANSPIRATION =         126247.51
           STREAMFLOW =        6224747.80             STREAMFLOW =          24042.25
     GW BOUNDARY FLOW =         154901.68       GW BOUNDARY FLOW =            648.97

   INFLOWS - OUTFLOWS =         361996.28     INFLOWS - OUTFLOWS =         133364.94
             --------                                   --------

 TOTAL STORAGE CHANGE =         369062.14         STORAGE CHANGE =         133359.86
       --------------                             --------------
         LAND SURFACE =         193288.31           LAND SURFACE =         -13054.26
            SOIL ZONE =        1699373.46              SOIL ZONE =         158416.34
     UNSATURATED ZONE =        -765675.70       UNSATURATED ZONE =          -6881.01
       SATURATED ZONE =        -757923.92         SATURATED ZONE =          -5121.22

 OVERALL BUDGET ERROR =          -7065.87           BUDGET ERROR =              5.09


  PERCENT DISCREPANCY =             -0.04    PERCENT DISCREPANCY =              0.00



1
 SUMMARY VOLUMETRIC BUDGET FOR GSFLOW 
 DATE: 06 02 1981              CUMULATIVE TIME STEP:     245
 MODFLOW STRESS PERIOD      2     CURRENT TIME STEP:     245     ITERATIONS:      13

 -----------------------------------------------------------------------------------

   CUMULATIVE VOLUMES               L**3   RATES FOR THIS TIME STEP           L**3/T
   ------------------                      ------------------------

                                     IN                                         IN
                                     --                                         --
        PRECIPITATION =        1.8318D+07          PRECIPITATION =          50869.96
           STREAMFLOW =                               STREAMFLOW =                  
     GW BOUNDARY FLOW =                         GW BOUNDARY FLOW =                  


                                    OUT                                        OUT
                                    ---                                        ---
   EVAPOTRANSPIRATION =        1.2338D+07     EVAPOTRANSPIRATION =          66244.06
           STREAMFLOW =        6310693.44             STREAMFLOW =           9113.07
     GW BOUNDARY FLOW =         159439.62       GW BOUNDARY FLOW =            647.74

   INFLOWS - OUTFLOWS =        -489659.87     INFLOWS - OUTFLOWS =         -25134.91
             --------                                   --------

 TOTAL STORAGE CHANGE =        -482568.48         STORAGE CHANGE =         -25127.11
       --------------                             --------------
         LAND SURFACE =         117089.10           LAND SURFACE =          25874.21
            SOIL ZONE =        1053986.94              SOIL ZONE =         -30832.04
     UNSATURATED ZONE =        -846012.17       UNSATURATED ZONE =         -12474.74
       SATURATED ZONE =        -807632.35         SATURATED ZONE =          -7694.54

 OVERALL BUDGET ERROR =          -7091.39           BUDGET ERROR =             -7.80


  PERCENT DISCREPANCY =             -0.04    PERCENT DISCREPANCY =             -0.01



1
 SUMMARY VOLUMETRIC BUDGET FOR GSFLOW 
 DATE: 06 09 1981              CUMULATIVE TIME STEP:     252
 MODFLOW STRESS PERIOD      2     CURRENT TIME STEP:     252     ITERATIONS:      15

 -----------------------------------------------------------------------------------

   CUMULATIVE VOLUMES               L**3   RATES FOR THIS TIME STEP           L**3/T
   ------------------                      ------------------------

                                     IN                                         IN
                                     --                                         --
        PRECIPITATION =        1.8318D+07          PRECIPITATION =                  
           STREAMFLOW =                               STREAMFLOW =                  
     GW BOUNDARY FLOW =                         GW BOUNDARY FLOW =                  


                                    OUT                                        OUT
                                    ---                                        ---
   EVAPOTRANSPIRATION =        1.2886D+07     EVAPOTRANSPIRATION =          55691.42
           STREAMFLOW =        6365540.83             STREAMFLOW =           7221.29
     GW BOUNDARY FLOW =         163971.30       GW BOUNDARY FLOW =            647.17

   INFLOWS - OUTFLOWS =       -1097476.88     INFLOWS - OUTFLOWS =         -63559.88
             --------                                   --------

 TOTAL STORAGE CHANGE =       -1090381.55         STORAGE CHANGE =         -63560.45
       --------------                             --------------
         LAND SURFACE =          38772.53           LAND SURFACE =          -4318.45
            SOIL ZONE =         667298.48              SOIL ZONE =         -38326.22
     UNSATURATED ZONE =        -931514.32       UNSATURATED ZONE =         -12613.76
       SATURATED ZONE =        -864938.24         SATURATED ZONE =          -8302.02

 OVERALL BUDGET ERROR =          -7095.33           BUDGET ERROR =              0.57


  PERCENT DISCREPANCY =             -0.04    PERCENT DISCREPANCY =              0.00



1
 SUMMARY VOLUMETRIC BUDGET FOR GSFLOW 
 DATE: 06 16 1981              CUMULATIVE TIME STEP:     259
 MODFLOW STRESS PERIOD      2     CURRENT TIME STEP:     259     ITERATIONS:      13

 -----------------------------------------------------------------------------------

   CUMULATIVE VOLUMES               L**3   RATES FOR THIS TIME STEP           L**3/T
   ------------------                      ------------------------

                                     IN                                         IN
                                     --                                         --
        PRECIPITATION =        1.8318D+07          PRECIPITATION =                  
           STREAMFLOW =                               STREAMFLOW =                  
     GW BOUNDARY FLOW =                         GW BOUNDARY FLOW =                  


                                    OUT                                        OUT
                                    ---                                        ---
   EVAPOTRANSPIRATION =        1.3095D+07     EVAPOTRANSPIRATION =          47450.71
           STREAMFLOW =        6413338.44             STREAMFLOW =           6684.70
     GW BOUNDARY FLOW =         168500.37       GW BOUNDARY FLOW =            646.91

   INFLOWS - OUTFLOWS =       -1358269.82     INFLOWS - OUTFLOWS =         -54782.32
             --------                                   --------

 TOTAL STORAGE CHANGE =       -1351160.40         STORAGE CHANGE =         -54778.60
       --------------                             --------------
         LAND SURFACE =          24983.30           LAND SURFACE =          -2996.08
            SOIL ZONE =         570517.82              SOIL ZONE =         -30040.53
     UNSATURATED ZONE =       -1021653.82       UNSATURATED ZONE =         -12982.10
       SATURATED ZONE =        -925007.71         SATURATED ZONE =          -8759.89

 OVERALL BUDGET ERROR =          -7109.41           BUDGET ERROR =             -3.72


  PERCENT DISCREPANCY =             -0.04    PERCENT DISCREPANCY =             -0.01



1
 SUMMARY VOLUMETRIC BUDGET FOR GSFLOW 
 DATE: 06 23 1981              CUMULATIVE TIME STEP:     266
 MODFLOW STRESS PERIOD      2     CURRENT TIME STEP:     266     ITERATIONS:      18

 -----------------------------------------------------------------------------------

   CUMULATIVE VOLUMES               L**3   RATES FOR THIS TIME STEP           L**3/T
   ------------------                      ------------------------

                                     IN                                         IN
                                     --                                         --
        PRECIPITATION =        1.8318D+07          PRECIPITATION =                  
           STREAMFLOW =                               STREAMFLOW =                  
     GW BOUNDARY FLOW =                         GW BOUNDARY FLOW =                  


                                    OUT                                        OUT
                                    ---                                        ---
   EVAPOTRANSPIRATION =        1.3436D+07     EVAPOTRANSPIRATION =          40284.70
           STREAMFLOW =        6457818.81             STREAMFLOW =           6105.84
     GW BOUNDARY FLOW =         173028.02       GW BOUNDARY FLOW =            646.86

   INFLOWS - OUTFLOWS =       -1748330.29     INFLOWS - OUTFLOWS =         -47037.40
             --------                                   --------

 TOTAL STORAGE CHANGE =       -1741226.97         STORAGE CHANGE =         -47032.99
       --------------                             --------------
         LAND SURFACE =           6713.78           LAND SURFACE =          -1553.37
            SOIL ZONE =         352140.03              SOIL ZONE =         -23647.44
     UNSATURATED ZONE =       -1110917.69       UNSATURATED ZONE =         -12489.54
       SATURATED ZONE =        -989163.09         SATURATED ZONE =          -9342.64

 OVERALL BUDGET ERROR =          -7103.32           BUDGET ERROR =             -4.41


  PERCENT DISCREPANCY =             -0.04    PERCENT DISCREPANCY =             -0.01



1
 SUMMARY VOLUMETRIC BUDGET FOR GSFLOW 
 DATE: 06 30 1981              CUMULATIVE TIME STEP:     273
 MODFLOW STRESS PERIOD      2     CURRENT TIME STEP:     273     ITERATIONS:      14

 -----------------------------------------------------------------------------------

   CUMULATIVE VOLUMES               L**3   RATES FOR THIS TIME STEP           L**3/T
   ------------------                      ------------------------

                                     IN                                         IN
[...]
                                    ---                                        ---
   EVAPOTRANSPIRATION =        2.7926D+08     EVAPOTRANSPIRATION =          37063.92
           STREAMFLOW =        1.8878D+08             STREAMFLOW =           7175.96
     GW BOUNDARY FLOW =        3738406.34       GW BOUNDARY FLOW =            651.37

   INFLOWS - OUTFLOWS =       -6721041.77     INFLOWS - OUTFLOWS =         -44891.25
             --------                                   --------

 TOTAL STORAGE CHANGE =       -6674885.48         STORAGE CHANGE =         -44895.52
       --------------                             --------------
         LAND SURFACE =        7.9403D-09           LAND SURFACE =                  
            SOIL ZONE =         269795.87              SOIL ZONE =         -22655.88
     UNSATURATED ZONE =        5013470.27       UNSATURATED ZONE =         -29324.61
       SATURATED ZONE =       -1.1958D+07         SATURATED ZONE =           7084.97

 OVERALL BUDGET ERROR =         -46156.29           BUDGET ERROR =              4.27


  PERCENT DISCREPANCY =             -0.01    PERCENT DISCREPANCY =              0.01



1
 SUMMARY VOLUMETRIC BUDGET FOR GSFLOW 
 DATE: 07 30 1996              CUMULATIVE TIME STEP:    5782
 MODFLOW STRESS PERIOD      2     CURRENT TIME STEP:    5782     ITERATIONS:      15

 -----------------------------------------------------------------------------------

   CUMULATIVE VOLUMES               L**3   RATES FOR THIS TIME STEP           L**3/T
   ------------------                      ------------------------

                                     IN                                         IN
                                     --                                         --
        PRECIPITATION =        4.6511D+08          PRECIPITATION =                  
           STREAMFLOW =                               STREAMFLOW =                  
     GW BOUNDARY FLOW =                         GW BOUNDARY FLOW =                  


                                    OUT                                        OUT
                                    ---                                        ---
   EVAPOTRANSPIRATION =        2.7949D+08     EVAPOTRANSPIRATION =          24465.04
           STREAMFLOW =        1.8883D+08             STREAMFLOW =           7020.61
     GW BOUNDARY FLOW =        3742964.26       GW BOUNDARY FLOW =            650.97

   INFLOWS - OUTFLOWS =       -6956784.60     INFLOWS - OUTFLOWS =         -32136.63
             --------                                   --------

 TOTAL STORAGE CHANGE =       -6910729.26         STORAGE CHANGE =         -32149.37
       --------------                             --------------
         LAND SURFACE =        7.9381D-09           LAND SURFACE =                  
            SOIL ZONE =         188206.87              SOIL ZONE =         -10260.79
     UNSATURATED ZONE =        4812307.48       UNSATURATED ZONE =         -28473.65
       SATURATED ZONE =       -1.1911D+07         SATURATED ZONE =           6585.08

 OVERALL BUDGET ERROR =         -46055.34           BUDGET ERROR =             12.74


  PERCENT DISCREPANCY =             -0.01    PERCENT DISCREPANCY =              0.04



1
 SUMMARY VOLUMETRIC BUDGET FOR GSFLOW 
 DATE: 08 06 1996              CUMULATIVE TIME STEP:    5789
 MODFLOW STRESS PERIOD      2     CURRENT TIME STEP:    5789     ITERATIONS:      17

 -----------------------------------------------------------------------------------

   CUMULATIVE VOLUMES               L**3   RATES FOR THIS TIME STEP           L**3/T
   ------------------                      ------------------------

                                     IN                                         IN
                                     --                                         --
        PRECIPITATION =        4.6511D+08          PRECIPITATION =                  
           STREAMFLOW =                               STREAMFLOW =                  
     GW BOUNDARY FLOW =                         GW BOUNDARY FLOW =                  


                                    OUT                                        OUT
                                    ---                                        ---
   EVAPOTRANSPIRATION =        2.7963D+08     EVAPOTRANSPIRATION =          16356.96
           STREAMFLOW =        1.8888D+08             STREAMFLOW =           6821.59
     GW BOUNDARY FLOW =        3747520.77       GW BOUNDARY FLOW =            650.87

   INFLOWS - OUTFLOWS =       -7141825.08     INFLOWS - OUTFLOWS =         -23829.41
             --------                                   --------

 TOTAL STORAGE CHANGE =       -7095874.55         STORAGE CHANGE =         -23836.19
       --------------                             --------------
         LAND SURFACE =        7.9381D-09           LAND SURFACE =                  
            SOIL ZONE =         154973.37              SOIL ZONE =          -2280.64
     UNSATURATED ZONE =        4618584.17       UNSATURATED ZONE =         -27324.73
       SATURATED ZONE =       -1.1869D+07         SATURATED ZONE =           5769.18

 OVERALL BUDGET ERROR =         -45950.53           BUDGET ERROR =              6.78


  PERCENT DISCREPANCY =             -0.01    PERCENT DISCREPANCY =              0.03



1
 SUMMARY VOLUMETRIC BUDGET FOR GSFLOW 
 DATE: 08 13 1996              CUMULATIVE TIME STEP:    5796
 MODFLOW STRESS PERIOD      2     CURRENT TIME STEP:    5796     ITERATIONS:      15

 -----------------------------------------------------------------------------------

   CUMULATIVE VOLUMES               L**3   RATES FOR THIS TIME STEP           L**3/T
   ------------------                      ------------------------

                                     IN                                         IN
                                     --                                         --
        PRECIPITATION =        4.6531D+08          PRECIPITATION =          54454.08
           STREAMFLOW =                               STREAMFLOW =                  
     GW BOUNDARY FLOW =                         GW BOUNDARY FLOW =                  


                                    OUT                                        OUT
                                    ---                                        ---
   EVAPOTRANSPIRATION =        2.7979D+08     EVAPOTRANSPIRATION =          29197.29
           STREAMFLOW =        1.8893D+08             STREAMFLOW =           8032.84
     GW BOUNDARY FLOW =        3752076.27       GW BOUNDARY FLOW =            650.79

   INFLOWS - OUTFLOWS =       -7155207.26     INFLOWS - OUTFLOWS =          16573.15
             --------                                   --------

 TOTAL STORAGE CHANGE =       -7109343.36         STORAGE CHANGE =          16556.69
       --------------                             --------------
         LAND SURFACE =          34505.06           LAND SURFACE =                  
            SOIL ZONE =         256386.11              SOIL ZONE =          37711.53
     UNSATURATED ZONE =        4434546.91       UNSATURATED ZONE =         -25648.93
       SATURATED ZONE =       -1.1835D+07         SATURATED ZONE =           4494.08

 OVERALL BUDGET ERROR =         -45863.90           BUDGET ERROR =             16.47


  PERCENT DISCREPANCY =             -0.01    PERCENT DISCREPANCY =              0.03



1
 SUMMARY VOLUMETRIC BUDGET FOR GSFLOW 
 DATE: 08 20 1996              CUMULATIVE TIME STEP:    5803
 MODFLOW STRESS PERIOD      2     CURRENT TIME STEP:    5803     ITERATIONS:      15

 -----------------------------------------------------------------------------------

   CUMULATIVE VOLUMES               L**3   RATES FOR THIS TIME STEP           L**3/T
   ------------------                      ------------------------

                                     IN                                         IN
                                     --                                         --
        PRECIPITATION =        4.6531D+08          PRECIPITATION =                  
           STREAMFLOW =                               STREAMFLOW =                  
     GW BOUNDARY FLOW =                         GW BOUNDARY FLOW =                  


                                    OUT                                        OUT
                                    ---                                        ---
   EVAPOTRANSPIRATION =        2.7998D+08     EVAPOTRANSPIRATION =          17447.46
           STREAMFLOW =        1.8898D+08             STREAMFLOW =           6617.03
     GW BOUNDARY FLOW =        3756630.08       GW BOUNDARY FLOW =            650.36

   INFLOWS - OUTFLOWS =       -7397766.67     INFLOWS - OUTFLOWS =         -24714.85
             --------                                   --------

 TOTAL STORAGE CHANGE =       -7352009.08         STORAGE CHANGE =         -24732.13
       --------------                             --------------
         LAND SURFACE =        7.9381D-09           LAND SURFACE =                  
            SOIL ZONE =         195984.28              SOIL ZONE =          -3737.72
     UNSATURATED ZONE =        4258284.80       UNSATURATED ZONE =         -24507.48
       SATURATED ZONE =       -1.1806D+07         SATURATED ZONE =           3513.08

 OVERALL BUDGET ERROR =         -45757.60           BUDGET ERROR =             17.27


  PERCENT DISCREPANCY =             -0.01    PERCENT DISCREPANCY =              0.07



1
 SUMMARY VOLUMETRIC BUDGET FOR GSFLOW 
 DATE: 08 27 1996              CUMULATIVE TIME STEP:    5810
 MODFLOW STRESS PERIOD      2     CURRENT TIME STEP:    5810     ITERATIONS:      15

 -----------------------------------------------------------------------------------

   CUMULATIVE VOLUMES               L**3   RATES FOR THIS TIME STEP           L**3/T
   ------------------                      ------------------------

                                     IN                                         IN
                                     --                                         --
        PRECIPITATION =        4.6531D+08          PRECIPITATION =                  
           STREAMFLOW =                               STREAMFLOW =                  
     GW BOUNDARY FLOW =                         GW BOUNDARY FLOW =                  


                                    OUT                                        OUT
                                    ---                                        ---
   EVAPOTRANSPIRATION =        2.8012D+08     EVAPOTRANSPIRATION =          16067.06
           STREAMFLOW =        1.8902D+08             STREAMFLOW =           6463.05
     GW BOUNDARY FLOW =        3761181.03       GW BOUNDARY FLOW =            649.97

   INFLOWS - OUTFLOWS =       -7585934.32     INFLOWS - OUTFLOWS =         -23180.08
             --------                                   --------

 TOTAL STORAGE CHANGE =       -7540256.99         STORAGE CHANGE =         -23192.23
       --------------                             --------------
         LAND SURFACE =        7.9381D-09           LAND SURFACE =                  
            SOIL ZONE =         153615.86              SOIL ZONE =          -2460.41
     UNSATURATED ZONE =        4093798.51       UNSATURATED ZONE =         -22869.10
       SATURATED ZONE =       -1.1788D+07         SATURATED ZONE =           2137.29

 OVERALL BUDGET ERROR =         -45677.33           BUDGET ERROR =             12.15


  PERCENT DISCREPANCY =             -0.01    PERCENT DISCREPANCY =              0.05



1
 SUMMARY VOLUMETRIC BUDGET FOR GSFLOW 
 DATE: 09 03 1996              CUMULATIVE TIME STEP:    5817
 MODFLOW STRESS PERIOD      2     CURRENT TIME STEP:    5817     ITERATIONS:      15

 -----------------------------------------------------------------------------------

   CUMULATIVE VOLUMES               L**3   RATES FOR THIS TIME STEP           L**3/T
   ------------------                      ------------------------

                                     IN                                         IN
                                     --                                         --
        PRECIPITATION =        4.6531D+08          PRECIPITATION =                  
           STREAMFLOW =                               STREAMFLOW =                  
     GW BOUNDARY FLOW =                         GW BOUNDARY FLOW =                  


                                    OUT                                        OUT
                                    ---                                        ---
   EVAPOTRANSPIRATION =        2.8023D+08     EVAPOTRANSPIRATION =          12611.60
           STREAMFLOW =        1.8907D+08             STREAMFLOW =           6356.38
     GW BOUNDARY FLOW =        3765729.21       GW BOUNDARY FLOW =            649.57

   INFLOWS - OUTFLOWS =       -7744872.25     INFLOWS - OUTFLOWS =         -19617.55
             --------                                   --------

 TOTAL STORAGE CHANGE =       -7699266.65         STORAGE CHANGE =         -19632.50
       --------------                             --------------
         LAND SURFACE =        7.9381D-09           LAND SURFACE =                  
            SOIL ZONE =         138731.41              SOIL ZONE =            857.50
     UNSATURATED ZONE =        3935507.88       UNSATURATED ZONE =         -22573.67
       SATURATED ZONE =       -1.1774D+07         SATURATED ZONE =           2083.67

 OVERALL BUDGET ERROR =         -45605.60           BUDGET ERROR =             14.95


  PERCENT DISCREPANCY =             -0.01    PERCENT DISCREPANCY =              0.08



1
 SUMMARY VOLUMETRIC BUDGET FOR GSFLOW 
 DATE: 09 10 1996              CUMULATIVE TIME STEP:    5824
 MODFLOW STRESS PERIOD      2     CURRENT TIME STEP:    5824     ITERATIONS:      13

 -----------------------------------------------------------------------------------

   CUMULATIVE VOLUMES               L**3   RATES FOR THIS TIME STEP           L**3/T
   ------------------                      ------------------------

                                     IN                                         IN
                                     --                                         --
        PRECIPITATION =        4.6531D+08          PRECIPITATION =                  
           STREAMFLOW =                               STREAMFLOW =                  
     GW BOUNDARY FLOW =                         GW BOUNDARY FLOW =                  


                                    OUT                                        OUT
                                    ---                                        ---
   EVAPOTRANSPIRATION =        2.8031D+08     EVAPOTRANSPIRATION =          13168.96
           STREAMFLOW =        1.8911D+08             STREAMFLOW =           6258.28
     GW BOUNDARY FLOW =        3770274.78       GW BOUNDARY FLOW =            649.20

   INFLOWS - OUTFLOWS =       -7880046.16     INFLOWS - OUTFLOWS =         -20076.44
             --------                                   --------

 TOTAL STORAGE CHANGE =       -7834535.95         STORAGE CHANGE =         -20098.59
       --------------                             --------------
         LAND SURFACE =        7.9381D-09           LAND SURFACE =                  
            SOIL ZONE =         145945.98              SOIL ZONE =            166.16
     UNSATURATED ZONE =        3782617.16       UNSATURATED ZONE =         -21108.60
       SATURATED ZONE =       -1.1763D+07         SATURATED ZONE =            843.85

 OVERALL BUDGET ERROR =         -45510.21           BUDGET ERROR =             22.15


  PERCENT DISCREPANCY =             -0.01    PERCENT DISCREPANCY =              0.11



1
 SUMMARY VOLUMETRIC BUDGET FOR GSFLOW 
 DATE: 09 17 1996              CUMULATIVE TIME STEP:    5831
 MODFLOW STRESS PERIOD      2     CURRENT TIME STEP:    5831     ITERATIONS:      21

 -----------------------------------------------------------------------------------

   CUMULATIVE VOLUMES               L**3   RATES FOR THIS TIME STEP           L**3/T
   ------------------                      ------------------------

                                     IN                                         IN
                                     --                                         --
        PRECIPITATION =        4.6637D+08          PRECIPITATION =                  
           STREAMFLOW =                               STREAMFLOW =                  
     GW BOUNDARY FLOW =                         GW BOUNDARY FLOW =                  


                                    OUT                                        OUT
                                    ---                                        ---
   EVAPOTRANSPIRATION =        2.8048D+08     EVAPOTRANSPIRATION =          52774.70
           STREAMFLOW =        1.8918D+08             STREAMFLOW =          10493.63
     GW BOUNDARY FLOW =        3774819.69       GW BOUNDARY FLOW =            649.62

   INFLOWS - OUTFLOWS =       -7066682.67     INFLOWS - OUTFLOWS =         -63917.94
             --------                                   --------

 TOTAL STORAGE CHANGE =       -7021175.82         STORAGE CHANGE =         -63927.85
       --------------                             --------------
         LAND SURFACE =            821.85           LAND SURFACE =         -33683.21
            SOIL ZONE =        1097212.68              SOIL ZONE =         -10266.71
     UNSATURATED ZONE =        3636155.03       UNSATURATED ZONE =         -20640.89
       SATURATED ZONE =       -1.1755D+07         SATURATED ZONE =            662.96

 OVERALL BUDGET ERROR =         -45506.85           BUDGET ERROR =              9.91


  PERCENT DISCREPANCY =             -0.01    PERCENT DISCREPANCY =              0.02



1
 SUMMARY VOLUMETRIC BUDGET FOR GSFLOW 
 DATE: 09 24 1996              CUMULATIVE TIME STEP:    5838
 MODFLOW STRESS PERIOD      2     CURRENT TIME STEP:    5838     ITERATIONS:      18

 -----------------------------------------------------------------------------------

   CUMULATIVE VOLUMES               L**3   RATES FOR THIS TIME STEP           L**3/T
   ------------------                      ------------------------

                                     IN                                         IN
                                     --                                         --
        PRECIPITATION =        4.6637D+08          PRECIPITATION =                  
           STREAMFLOW =                               STREAMFLOW =                  
     GW BOUNDARY FLOW =                         GW BOUNDARY FLOW =                  


                                    OUT                                        OUT
                                    ---                                        ---
   EVAPOTRANSPIRATION =        2.8097D+08     EVAPOTRANSPIRATION =          56301.90
           STREAMFLOW =        1.8923D+08             STREAMFLOW =           6925.11
     GW BOUNDARY FLOW =        3779363.17       GW BOUNDARY FLOW =            648.74

   INFLOWS - OUTFLOWS =       -7619304.26     INFLOWS - OUTFLOWS =         -63875.75
             --------                                   --------

 TOTAL STORAGE CHANGE =       -7573823.15         STORAGE CHANGE =         -63887.34
       --------------                             --------------
         LAND SURFACE =        7.9410D-09           LAND SURFACE =                  
            SOIL ZONE =         684733.95              SOIL ZONE =         -44047.04
     UNSATURATED ZONE =        3495036.02       UNSATURATED ZONE =         -19620.93
       SATURATED ZONE =       -1.1754D+07         SATURATED ZONE =           -219.36

 OVERALL BUDGET ERROR =         -45481.11           BUDGET ERROR =             11.59


  PERCENT DISCREPANCY =             -0.01    PERCENT DISCREPANCY =              0.02



