1
 SUMMARY VOLUMETRIC BUDGET FOR GSFLOW 
 DATE: 10 07 1980              CUMULATIVE TIME STEP:       7
 MODFLOW STRESS PERIOD      2     CURRENT TIME STEP:       7     ITERATIONS:       6

 -----------------------------------------------------------------------------------

   CUMULATIVE VOLUMES               L**3   RATES FOR THIS TIME STEP           L**3/T
   ------------------                      ------------------------

                                     IN                                         IN
                                     --                                         --
        PRECIPITATION =                            PRECIPITATION =                  
           STREAMFLOW =                               STREAMFLOW =                  
     GW BOUNDARY FLOW =                         GW BOUNDARY FLOW =                  


                                    OUT                                        OUT
                                    ---                                        ---
   EVAPOTRANSPIRATION =          65413.20     EVAPOTRANSPIRATION =           9161.73
           STREAMFLOW =          42957.50             STREAMFLOW =           6065.76
     GW BOUNDARY FLOW =           4541.44       GW BOUNDARY FLOW =            648.70

   INFLOWS - OUTFLOWS =        -112912.14     INFLOWS - OUTFLOWS =         -15876.19
             --------                                   --------

 TOTAL STORAGE CHANGE =        -112516.53         STORAGE CHANGE =         -15815.61
       --------------                             --------------
         LAND SURFACE =                             LAND SURFACE =                  
            SOIL ZONE =          45102.78              SOIL ZONE =           6534.58
     UNSATURATED ZONE =        -144779.04       UNSATURATED ZONE =         -20361.32
       SATURATED ZONE =         -12840.27         SATURATED ZONE =          -1988.86

 OVERALL BUDGET ERROR =           -395.61           BUDGET ERROR =            -60.59


  PERCENT DISCREPANCY =             -0.35    PERCENT DISCREPANCY =             -0.38



1
 SUMMARY VOLUMETRIC BUDGET FOR GSFLOW 
 DATE: 10 14 1980              CUMULATIVE TIME STEP:      14
 MODFLOW STRESS PERIOD      2     CURRENT TIME STEP:      14     ITERATIONS:       6

 -----------------------------------------------------------------------------------

   CUMULATIVE VOLUMES               L**3   RATES FOR THIS TIME STEP           L**3/T
   ------------------                      ------------------------

                                     IN                                         IN
                                     --                                         --
        PRECIPITATION =         650779.83          PRECIPITATION =         164754.40
           STREAMFLOW =                               STREAMFLOW =                  
     GW BOUNDARY FLOW =                         GW BOUNDARY FLOW =                  


                                    OUT                                        OUT
                                    ---                                        ---
   EVAPOTRANSPIRATION =         161538.47     EVAPOTRANSPIRATION =          11486.75
           STREAMFLOW =          94453.31             STREAMFLOW =           7710.02
     GW BOUNDARY FLOW =           9082.95       GW BOUNDARY FLOW =            648.93

   INFLOWS - OUTFLOWS =         385705.10     INFLOWS - OUTFLOWS =         144908.70
             --------                                   --------

 TOTAL STORAGE CHANGE =         386545.46         STORAGE CHANGE =         144970.98
       --------------                             --------------
         LAND SURFACE =         183750.31           LAND SURFACE =         130549.56
            SOIL ZONE =         514862.70              SOIL ZONE =          36452.69
     UNSATURATED ZONE =        -284496.61       UNSATURATED ZONE =         -19624.97
       SATURATED ZONE =         -27570.93         SATURATED ZONE =          -2406.30

 OVERALL BUDGET ERROR =           -840.36           BUDGET ERROR =            -62.28


  PERCENT DISCREPANCY =             -0.13    PERCENT DISCREPANCY =             -0.04



1
 SUMMARY VOLUMETRIC BUDGET FOR GSFLOW 
 DATE: 10 21 1980              CUMULATIVE TIME STEP:      21
 MODFLOW STRESS PERIOD      2     CURRENT TIME STEP:      21     ITERATIONS:       6

 -----------------------------------------------------------------------------------

   CUMULATIVE VOLUMES               L**3   RATES FOR THIS TIME STEP           L**3/T
   ------------------                      ------------------------

                                     IN                                         IN
                                     --                                         --
        PRECIPITATION =         733157.03          PRECIPITATION =                  
           STREAMFLOW =                               STREAMFLOW =                  
     GW BOUNDARY FLOW =                         GW BOUNDARY FLOW =                  


                                    OUT                                        OUT
                                    ---                                        ---
   EVAPOTRANSPIRATION =         392349.02     EVAPOTRANSPIRATION =          34546.54
           STREAMFLOW =         145722.60             STREAMFLOW =           6918.52
     GW BOUNDARY FLOW =          13624.70       GW BOUNDARY FLOW =            648.74

   INFLOWS - OUTFLOWS =         181460.70     INFLOWS - OUTFLOWS =         -42113.80
             --------                                   --------

 TOTAL STORAGE CHANGE =         182751.77         STORAGE CHANGE =         -42044.13
       --------------                             --------------
         LAND SURFACE =                             LAND SURFACE =                  
            SOIL ZONE =         647972.55              SOIL ZONE =         -20189.09
     UNSATURATED ZONE =        -418665.43       UNSATURATED ZONE =         -18826.98
       SATURATED ZONE =         -46555.36         SATURATED ZONE =          -3028.06

 OVERALL BUDGET ERROR =          -1291.06           BUDGET ERROR =            -69.66


  PERCENT DISCREPANCY =             -0.18    PERCENT DISCREPANCY =             -0.17



1
 SUMMARY VOLUMETRIC BUDGET FOR GSFLOW 
 DATE: 10 28 1980              CUMULATIVE TIME STEP:      28
 MODFLOW STRESS PERIOD      2     CURRENT TIME STEP:      28     ITERATIONS:       6

 -----------------------------------------------------------------------------------

   CUMULATIVE VOLUMES               L**3   RATES FOR THIS TIME STEP           L**3/T
   ------------------                      ------------------------

                                     IN                                         IN
                                     --                                         --
        PRECIPITATION =        1070903.53          PRECIPITATION =                  
           STREAMFLOW =                               STREAMFLOW =                  
     GW BOUNDARY FLOW =                         GW BOUNDARY FLOW =                  


                                    OUT                                        OUT
                                    ---                                        ---
   EVAPOTRANSPIRATION =         578760.69     EVAPOTRANSPIRATION =          24710.43
           STREAMFLOW =         200316.64             STREAMFLOW =           7957.46
     GW BOUNDARY FLOW =          18165.95       GW BOUNDARY FLOW =            648.80

   INFLOWS - OUTFLOWS =         273660.24     INFLOWS - OUTFLOWS =         -33316.68
             --------                                   --------

 TOTAL STORAGE CHANGE =         275455.12         STORAGE CHANGE =         -33242.53
       --------------                             --------------
         LAND SURFACE =          20571.53           LAND SURFACE =         -29890.85
            SOIL ZONE =         871313.17              SOIL ZONE =          18137.18
     UNSATURATED ZONE =        -547248.89       UNSATURATED ZONE =         -17998.36
       SATURATED ZONE =         -69180.68         SATURATED ZONE =          -3490.50

 OVERALL BUDGET ERROR =          -1794.88           BUDGET ERROR =            -74.15


  PERCENT DISCREPANCY =             -0.17    PERCENT DISCREPANCY =             -0.22



1
 SUMMARY VOLUMETRIC BUDGET FOR GSFLOW 
 DATE: 11 04 1980              CUMULATIVE TIME STEP:      35
 MODFLOW STRESS PERIOD      2     CURRENT TIME STEP:      35     ITERATIONS:       8

 -----------------------------------------------------------------------------------

   CUMULATIVE VOLUMES               L**3   RATES FOR THIS TIME STEP           L**3/T
   ------------------                      ------------------------

                                     IN                                         IN
                                     --                                         --
        PRECIPITATION =        1070903.53          PRECIPITATION =                  
           STREAMFLOW =                               STREAMFLOW =                  
     GW BOUNDARY FLOW =                         GW BOUNDARY FLOW =                  


                                    OUT                                        OUT
                                    ---                                        ---
   EVAPOTRANSPIRATION =         910100.41     EVAPOTRANSPIRATION =          47149.57
           STREAMFLOW =         252879.40             STREAMFLOW =           7065.07
     GW BOUNDARY FLOW =          22706.95       GW BOUNDARY FLOW =            648.65

   INFLOWS - OUTFLOWS =        -114783.23     INFLOWS - OUTFLOWS =         -54863.29
             --------                                   --------

 TOTAL STORAGE CHANGE =        -112585.35         STORAGE CHANGE =         -54811.02
       --------------                             --------------
         LAND SURFACE =                             LAND SURFACE =                  
            SOIL ZONE =         654512.21              SOIL ZONE =         -33279.85
     UNSATURATED ZONE =        -670645.75       UNSATURATED ZONE =         -17360.87
       SATURATED ZONE =         -96451.81         SATURATED ZONE =          -4170.30

 OVERALL BUDGET ERROR =          -2197.88           BUDGET ERROR =            -52.26


  PERCENT DISCREPANCY =             -0.19    PERCENT DISCREPANCY =             -0.10



1
 SUMMARY VOLUMETRIC BUDGET FOR GSFLOW 
 DATE: 11 11 1980              CUMULATIVE TIME STEP:      42
 MODFLOW STRESS PERIOD      2     CURRENT TIME STEP:      42     ITERATIONS:       7

 -----------------------------------------------------------------------------------

   CUMULATIVE VOLUMES               L**3   RATES FOR THIS TIME STEP           L**3/T
   ------------------                      ------------------------

                                     IN                                         IN
                                     --                                         --
        PRECIPITATION =        1573762.54          PRECIPITATION =         255182.19
           STREAMFLOW =                               STREAMFLOW =                  
     GW BOUNDARY FLOW =                         GW BOUNDARY FLOW =                  


                                    OUT                                        OUT
                                    ---                                        ---
   EVAPOTRANSPIRATION =        1117900.00     EVAPOTRANSPIRATION =          18592.45
           STREAMFLOW =         310065.99             STREAMFLOW =          10977.04
     GW BOUNDARY FLOW =          27247.80       GW BOUNDARY FLOW =            648.87

   INFLOWS - OUTFLOWS =         118548.75     INFLOWS - OUTFLOWS =         224963.83
             --------                                   --------

 TOTAL STORAGE CHANGE =         121209.98         STORAGE CHANGE =         225018.01
       --------------                             --------------
         LAND SURFACE =          76960.22           LAND SURFACE =          76747.38
            SOIL ZONE =         959745.35              SOIL ZONE =         168885.93
     UNSATURATED ZONE =        -789133.65       UNSATURATED ZONE =         -16539.26
       SATURATED ZONE =        -126361.94         SATURATED ZONE =          -4076.05

 OVERALL BUDGET ERROR =          -2661.22           BUDGET ERROR =            -54.17


  PERCENT DISCREPANCY =             -0.17    PERCENT DISCREPANCY =             -0.02



1
 SUMMARY VOLUMETRIC BUDGET FOR GSFLOW 
 DATE: 11 18 1980              CUMULATIVE TIME STEP:      49
 MODFLOW STRESS PERIOD      2     CURRENT TIME STEP:      49     ITERATIONS:       6

 -----------------------------------------------------------------------------------

   CUMULATIVE VOLUMES               L**3   RATES FOR THIS TIME STEP           L**3/T
   ------------------                      ------------------------

                                     IN                                         IN
                                     --                                         --
        PRECIPITATION =        1573762.54          PRECIPITATION =                  
           STREAMFLOW =                               STREAMFLOW =                  
     GW BOUNDARY FLOW =                         GW BOUNDARY FLOW =                  


                                    OUT                                        OUT
                                    ---                                        ---
   EVAPOTRANSPIRATION =        1208450.27     EVAPOTRANSPIRATION =          16385.69
           STREAMFLOW =         373292.26             STREAMFLOW =           9231.65
     GW BOUNDARY FLOW =          31789.78       GW BOUNDARY FLOW =            648.86

   INFLOWS - OUTFLOWS =         -39769.76     INFLOWS - OUTFLOWS =         -26266.19
             --------                                   --------

 TOTAL STORAGE CHANGE =         -36577.59         STORAGE CHANGE =         -26182.51
       --------------                             --------------
         LAND SURFACE =           8139.47           LAND SURFACE =          -4965.50
            SOIL ZONE =        1017311.21              SOIL ZONE =           -364.77
     UNSATURATED ZONE =        -903045.40       UNSATURATED ZONE =         -16046.50
       SATURATED ZONE =        -158982.88         SATURATED ZONE =          -4805.74

 OVERALL BUDGET ERROR =          -3192.18           BUDGET ERROR =            -83.68


  PERCENT DISCREPANCY =             -0.20    PERCENT DISCREPANCY =             -0.32



1
 SUMMARY VOLUMETRIC BUDGET FOR GSFLOW 
 DATE: 11 25 1980              CUMULATIVE TIME STEP:      56
 MODFLOW STRESS PERIOD      2     CURRENT TIME STEP:      56     ITERATIONS:       7

 -----------------------------------------------------------------------------------

   CUMULATIVE VOLUMES               L**3   RATES FOR THIS TIME STEP           L**3/T
   ------------------                      ------------------------

                                     IN                                         IN
                                     --                                         --
        PRECIPITATION =        1648816.13          PRECIPITATION =                  
           STREAMFLOW =                               STREAMFLOW =                  
     GW BOUNDARY FLOW =                         GW BOUNDARY FLOW =                  


                                    OUT                                        OUT
                                    ---                                        ---
   EVAPOTRANSPIRATION =        1290461.29     EVAPOTRANSPIRATION =           9281.23
           STREAMFLOW =         438176.26             STREAMFLOW =           9376.82
     GW BOUNDARY FLOW =          36331.82       GW BOUNDARY FLOW =            648.87

   INFLOWS - OUTFLOWS =        -116153.25     INFLOWS - OUTFLOWS =         -19306.92
             --------                                   --------

 TOTAL STORAGE CHANGE =        -112413.12         STORAGE CHANGE =         -19235.93
       --------------                             --------------
         LAND SURFACE =          54136.41           LAND SURFACE =          -9258.02
            SOIL ZONE =        1041466.33              SOIL ZONE =          10855.87
     UNSATURATED ZONE =       -1012732.94       UNSATURATED ZONE =         -15409.06
       SATURATED ZONE =        -195282.92         SATURATED ZONE =          -5424.72

 OVERALL BUDGET ERROR =          -3740.13           BUDGET ERROR =            -70.99


  PERCENT DISCREPANCY =             -0.21    PERCENT DISCREPANCY =             -0.37



1
 SUMMARY VOLUMETRIC BUDGET FOR GSFLOW 
 DATE: 12 02 1980              CUMULATIVE TIME STEP:      63
 MODFLOW STRESS PERIOD      2     CURRENT TIME STEP:      63     ITERATIONS:       8

 -----------------------------------------------------------------------------------

   CUMULATIVE VOLUMES               L**3   RATES FOR THIS TIME STEP           L**3/T
   ------------------                      ------------------------

                                     IN                                         IN
                                     --                                         --
        PRECIPITATION =        2076621.55          PRECIPITATION =                  
           STREAMFLOW =                               STREAMFLOW =                  
     GW BOUNDARY FLOW =                         GW BOUNDARY FLOW =                  


                                    OUT                                        OUT
                                    ---                                        ---
   EVAPOTRANSPIRATION =        1479129.79     EVAPOTRANSPIRATION =          32849.18
           STREAMFLOW =         515595.54             STREAMFLOW =          13750.97
     GW BOUNDARY FLOW =          40874.92       GW BOUNDARY FLOW =            649.28

   INFLOWS - OUTFLOWS =          41021.30     INFLOWS - OUTFLOWS =         -47249.43
             --------                                   --------

 TOTAL STORAGE CHANGE =          45143.02         STORAGE CHANGE =         -47201.02
       --------------                             --------------
         LAND SURFACE =         157031.20           LAND SURFACE =         -76789.76
            SOIL ZONE =        1235950.69              SOIL ZONE =          47653.64
     UNSATURATED ZONE =       -1115129.25       UNSATURATED ZONE =         -13249.07
       SATURATED ZONE =        -232709.63         SATURATED ZONE =          -4815.83

 OVERALL BUDGET ERROR =          -4121.72           BUDGET ERROR =            -48.41


  PERCENT DISCREPANCY =             -0.20    PERCENT DISCREPANCY =             -0.10



1
 SUMMARY VOLUMETRIC BUDGET FOR GSFLOW 
 DATE: 12 09 1980              CUMULATIVE TIME STEP:      70
 MODFLOW STRESS PERIOD      2     CURRENT TIME STEP:      70     ITERATIONS:       7

 -----------------------------------------------------------------------------------

   CUMULATIVE VOLUMES               L**3   RATES FOR THIS TIME STEP           L**3/T
   ------------------                      ------------------------

                                     IN                                         IN
                                     --                                         --
        PRECIPITATION =        4284363.63          PRECIPITATION =                  
           STREAMFLOW =                               STREAMFLOW =                  
     GW BOUNDARY FLOW =                         GW BOUNDARY FLOW =                  


                                    OUT                                        OUT
                                    ---                                        ---
   EVAPOTRANSPIRATION =        1504768.57     EVAPOTRANSPIRATION =           3258.35
           STREAMFLOW =         605661.70             STREAMFLOW =          13238.78
     GW BOUNDARY FLOW =          45420.57       GW BOUNDARY FLOW =            649.47

   INFLOWS - OUTFLOWS =        2128512.79     INFLOWS - OUTFLOWS =         -17146.60
             --------                                   --------

 TOTAL STORAGE CHANGE =        2133070.99         STORAGE CHANGE =         -17085.47
       --------------                             --------------
         LAND SURFACE =        2337504.39           LAND SURFACE =          -3258.35
            SOIL ZONE =        1281513.06              SOIL ZONE =           6326.89
     UNSATURATED ZONE =       -1213881.21       UNSATURATED ZONE =         -14232.98
       SATURATED ZONE =        -272065.25         SATURATED ZONE =          -5921.02

 OVERALL BUDGET ERROR =          -4558.21           BUDGET ERROR =            -61.13


  PERCENT DISCREPANCY =             -0.11    PERCENT DISCREPANCY =             -0.36



1
 SUMMARY VOLUMETRIC BUDGET FOR GSFLOW 
 DATE: 12 16 1980              CUMULATIVE TIME STEP:      77
 MODFLOW STRESS PERIOD      2     CURRENT TIME STEP:      77     ITERATIONS:       7

 -----------------------------------------------------------------------------------

   CUMULATIVE VOLUMES               L**3   RATES FOR THIS TIME STEP           L**3/T
   ------------------                      ------------------------

                                     IN                                         IN
                                     --                                         --
        PRECIPITATION =        4284363.63          PRECIPITATION =                  
           STREAMFLOW =                               STREAMFLOW =                  
     GW BOUNDARY FLOW =                         GW BOUNDARY FLOW =                  


                                    OUT                                        OUT
                                    ---                                        ---
   EVAPOTRANSPIRATION =        1648769.96     EVAPOTRANSPIRATION =          33864.48
           STREAMFLOW =         716106.35             STREAMFLOW =          23002.93
     GW BOUNDARY FLOW =          49967.98       GW BOUNDARY FLOW =            650.05

   INFLOWS - OUTFLOWS =        1869519.34     INFLOWS - OUTFLOWS =         -57517.46
             --------                                   --------

 TOTAL STORAGE CHANGE =        1874506.61         STORAGE CHANGE =         -57462.84
       --------------                             --------------
         LAND SURFACE =        2017009.25           LAND SURFACE =        -133032.47
            SOIL ZONE =        1475695.41              SOIL ZONE =          89899.65
     UNSATURATED ZONE =       -1305029.20       UNSATURATED ZONE =          -9633.71
       SATURATED ZONE =        -313168.86         SATURATED ZONE =          -4696.31

 OVERALL BUDGET ERROR =          -4987.27           BUDGET ERROR =            -54.62


  PERCENT DISCREPANCY =             -0.12    PERCENT DISCREPANCY =             -0.10



1
 SUMMARY VOLUMETRIC BUDGET FOR GSFLOW 
 DATE: 12 23 1980              CUMULATIVE TIME STEP:      84
 MODFLOW STRESS PERIOD      2     CURRENT TIME STEP:      84     ITERATIONS:       9

 -----------------------------------------------------------------------------------

   CUMULATIVE VOLUMES               L**3   RATES FOR THIS TIME STEP           L**3/T
   ------------------                      ------------------------

                                     IN                                         IN
                                     --                                         --
        PRECIPITATION =        4516757.54          PRECIPITATION =                  
           STREAMFLOW =                               STREAMFLOW =                  
     GW BOUNDARY FLOW =                         GW BOUNDARY FLOW =                  


                                    OUT                                        OUT
                                    ---                                        ---
   EVAPOTRANSPIRATION =        1840930.56     EVAPOTRANSPIRATION =          33245.56
           STREAMFLOW =         938000.22             STREAMFLOW =          30343.10
     GW BOUNDARY FLOW =          54527.47       GW BOUNDARY FLOW =            651.88

   INFLOWS - OUTFLOWS =        1683299.29     INFLOWS - OUTFLOWS =         -64240.54
             --------                                   --------

 TOTAL STORAGE CHANGE =        1688551.07         STORAGE CHANGE =         -64207.28
       --------------                             --------------
         LAND SURFACE =        1391476.45           LAND SURFACE =         -50626.27
            SOIL ZONE =        1987686.41              SOIL ZONE =          -2867.21
     UNSATURATED ZONE =       -1348995.41       UNSATURATED ZONE =          -6244.61
       SATURATED ZONE =        -341616.39         SATURATED ZONE =          -4469.19

 OVERALL BUDGET ERROR =          -5251.78           BUDGET ERROR =            -33.26


  PERCENT DISCREPANCY =             -0.12    PERCENT DISCREPANCY =             -0.05



1
 SUMMARY VOLUMETRIC BUDGET FOR GSFLOW 
 DATE: 12 30 1980              CUMULATIVE TIME STEP:      91
 MODFLOW STRESS PERIOD      2     CURRENT TIME STEP:      91     ITERATIONS:      10

 -----------------------------------------------------------------------------------

   CUMULATIVE VOLUMES               L**3   RATES FOR THIS TIME STEP           L**3/T
   ------------------                      ------------------------

                                     IN                                         IN
                                     --                                         --
        PRECIPITATION =        4516757.54          PRECIPITATION =                  
           STREAMFLOW =                               STREAMFLOW =                  
     GW BOUNDARY FLOW =                         GW BOUNDARY FLOW =                  


                                    OUT                                        OUT
                                    ---                                        ---
   EVAPOTRANSPIRATION =        2153837.33     EVAPOTRANSPIRATION =          41017.16
           STREAMFLOW =        1189670.24             STREAMFLOW =          28585.59
     GW BOUNDARY FLOW =          59094.42       GW BOUNDARY FLOW =            652.46

   INFLOWS - OUTFLOWS =        1114155.55     INFLOWS - OUTFLOWS =         -70255.21
             --------                                   --------

 TOTAL STORAGE CHANGE =        1119539.10         STORAGE CHANGE =         -70242.82
       --------------                             --------------
         LAND SURFACE =         579625.21           LAND SURFACE =         -42433.18
            SOIL ZONE =        2261225.55              SOIL ZONE =         -20898.50
     UNSATURATED ZONE =       -1354788.22       UNSATURATED ZONE =          -2762.11
       SATURATED ZONE =        -366523.44         SATURATED ZONE =          -4149.04

 OVERALL BUDGET ERROR =          -5383.55           BUDGET ERROR =            -12.39


  PERCENT DISCREPANCY =             -0.12    PERCENT DISCREPANCY =             -0.02



1
 SUMMARY VOLUMETRIC BUDGET FOR GSFLOW 
 DATE: 01 06 1981              CUMULATIVE TIME STEP:      98
 MODFLOW STRESS PERIOD      2     CURRENT TIME STEP:      98     ITERATIONS:       8

 -----------------------------------------------------------------------------------

   CUMULATIVE VOLUMES               L**3   RATES FOR THIS TIME STEP           L**3/T
   ------------------                      ------------------------

                                     IN                                         IN
                                     --                                         --
        PRECIPITATION =        5004445.43          PRECIPITATION =                  
           STREAMFLOW =                               STREAMFLOW =                  
     GW BOUNDARY FLOW =                         GW BOUNDARY FLOW =                  


                                    OUT                                        OUT
                                    ---                                        ---
   EVAPOTRANSPIRATION =        2353248.54     EVAPOTRANSPIRATION =          18968.00
           STREAMFLOW =        1343670.57             STREAMFLOW =          20635.38
     GW BOUNDARY FLOW =          63656.09       GW BOUNDARY FLOW =            651.19

   INFLOWS - OUTFLOWS =        1243870.23     INFLOWS - OUTFLOWS =         -40254.57
             --------                                   --------

 TOTAL STORAGE CHANGE =        1249389.50         STORAGE CHANGE =         -40229.92
       --------------                             --------------
         LAND SURFACE =         840075.39           LAND SURFACE =         -25549.72
            SOIL ZONE =        2230790.98              SOIL ZONE =           2143.30
     UNSATURATED ZONE =       -1417209.01       UNSATURATED ZONE =         -11085.59
       SATURATED ZONE =        -404267.87         SATURATED ZONE =          -5737.92

 OVERALL BUDGET ERROR =          -5519.27           BUDGET ERROR =            -24.65


  PERCENT DISCREPANCY =             -0.11    PERCENT DISCREPANCY =             -0.06



1
 SUMMARY VOLUMETRIC BUDGET FOR GSFLOW 
 DATE: 01 13 1981              CUMULATIVE TIME STEP:     105
 MODFLOW STRESS PERIOD      2     CURRENT TIME STEP:     105     ITERATIONS:       7

 -----------------------------------------------------------------------------------

   CUMULATIVE VOLUMES               L**3   RATES FOR THIS TIME STEP           L**3/T
   ------------------                      ------------------------

                                     IN                                         IN
                                     --                                         --
        PRECIPITATION =        5004445.43          PRECIPITATION =                  
           STREAMFLOW =                               STREAMFLOW =                  
     GW BOUNDARY FLOW =                         GW BOUNDARY FLOW =                  


                                    OUT                                        OUT
                                    ---                                        ---
   EVAPOTRANSPIRATION =        2541611.05     EVAPOTRANSPIRATION =          38974.40
           STREAMFLOW =        1491670.82             STREAMFLOW =          20732.21
     GW BOUNDARY FLOW =          68213.03       GW BOUNDARY FLOW =            650.86

   INFLOWS - OUTFLOWS =         902950.53     INFLOWS - OUTFLOWS =         -60357.47
             --------                                   --------

 TOTAL STORAGE CHANGE =         908772.18         STORAGE CHANGE =         -60306.54
       --------------                             --------------
         LAND SURFACE =         624161.64           LAND SURFACE =         -38673.92
            SOIL ZONE =        2215135.06              SOIL ZONE =          -6608.52
     UNSATURATED ZONE =       -1483245.69       UNSATURATED ZONE =          -8630.35
       SATURATED ZONE =        -447278.83         SATURATED ZONE =          -6393.75

 OVERALL BUDGET ERROR =          -5821.65           BUDGET ERROR =            -50.93


  PERCENT DISCREPANCY =             -0.12    PERCENT DISCREPANCY =             -0.08



1
 SUMMARY VOLUMETRIC BUDGET FOR GSFLOW 
 DATE: 01 20 1981              CUMULATIVE TIME STEP:     112
 MODFLOW STRESS PERIOD      2     CURRENT TIME STEP:     112     ITERATIONS:       8

 -----------------------------------------------------------------------------------

   CUMULATIVE VOLUMES               L**3   RATES FOR THIS TIME STEP           L**3/T
   ------------------                      ------------------------

                                     IN                                         IN
                                     --                                         --
        PRECIPITATION =        5170466.84          PRECIPITATION =          41505.35
           STREAMFLOW =                               STREAMFLOW =                  
     GW BOUNDARY FLOW =                         GW BOUNDARY FLOW =                  


                                    OUT                                        OUT
                                    ---                                        ---
   EVAPOTRANSPIRATION =        2797500.19     EVAPOTRANSPIRATION =          30606.98
           STREAMFLOW =        1636469.95             STREAMFLOW =          20334.47
     GW BOUNDARY FLOW =          72768.11       GW BOUNDARY FLOW =            650.66

   INFLOWS - OUTFLOWS =         663728.58     INFLOWS - OUTFLOWS =         -10086.76
             --------                                   --------

 TOTAL STORAGE CHANGE =         669865.22         STORAGE CHANGE =         -10055.37
       --------------                             --------------
         LAND SURFACE =         464145.88           LAND SURFACE =           8501.89
            SOIL ZONE =        2210190.17              SOIL ZONE =         -10483.55
     UNSATURATED ZONE =       -1513257.46       UNSATURATED ZONE =          -1474.48
       SATURATED ZONE =        -491213.38         SATURATED ZONE =          -6599.22

 OVERALL BUDGET ERROR =          -6136.63           BUDGET ERROR =            -31.39


  PERCENT DISCREPANCY =             -0.12    PERCENT DISCREPANCY =             -0.06



1
 SUMMARY VOLUMETRIC BUDGET FOR GSFLOW 
 DATE: 01 27 1981              CUMULATIVE TIME STEP:     119
 MODFLOW STRESS PERIOD      2     CURRENT TIME STEP:     119     ITERATIONS:       8

 -----------------------------------------------------------------------------------

   CUMULATIVE VOLUMES               L**3   RATES FOR THIS TIME STEP           L**3/T
   ------------------                      ------------------------

                                     IN                                         IN
                                     --                                         --
        PRECIPITATION =        8646540.08          PRECIPITATION =        2936503.63
           STREAMFLOW =                               STREAMFLOW =                  
     GW BOUNDARY FLOW =                         GW BOUNDARY FLOW =                  


                                    OUT                                        OUT
                                    ---                                        ---
   EVAPOTRANSPIRATION =        3019648.04     EVAPOTRANSPIRATION =          12639.57
           STREAMFLOW =        1782922.14             STREAMFLOW =          18816.82
     GW BOUNDARY FLOW =          77322.54       GW BOUNDARY FLOW =            650.45

   INFLOWS - OUTFLOWS =        3766647.36     INFLOWS - OUTFLOWS =        2904396.79
             --------                                   --------

 TOTAL STORAGE CHANGE =        3772922.96         STORAGE CHANGE =        2904416.51
       --------------                             --------------
         LAND SURFACE =        3592460.11           LAND SURFACE =        2923864.12
            SOIL ZONE =        2218001.81              SOIL ZONE =          -7076.84
     UNSATURATED ZONE =       -1501891.44       UNSATURATED ZONE =          -5610.19
       SATURATED ZONE =        -535647.52         SATURATED ZONE =          -6760.59

 OVERALL BUDGET ERROR =          -6275.60           BUDGET ERROR =            -19.71


  PERCENT DISCREPANCY =             -0.07    PERCENT DISCREPANCY =             -0.00



1
 SUMMARY VOLUMETRIC BUDGET FOR GSFLOW 
 DATE: 02 03 1981              CUMULATIVE TIME STEP:     126
 MODFLOW STRESS PERIOD      2     CURRENT TIME STEP:     126     ITERATIONS:       8

 -----------------------------------------------------------------------------------

   CUMULATIVE VOLUMES               L**3   RATES FOR THIS TIME STEP           L**3/T
   ------------------                      ------------------------

                                     IN                                         IN
                                     --                                         --
        PRECIPITATION =        1.1739D+07          PRECIPITATION =                  
           STREAMFLOW =                               STREAMFLOW =                  
     GW BOUNDARY FLOW =                         GW BOUNDARY FLOW =                  


                                    OUT                                        OUT
                                    ---                                        ---
   EVAPOTRANSPIRATION =        3054839.41     EVAPOTRANSPIRATION =           7106.06
           STREAMFLOW =        1910599.85             STREAMFLOW =          18117.84
     GW BOUNDARY FLOW =          81874.72       GW BOUNDARY FLOW =            650.26

   INFLOWS - OUTFLOWS =        6691374.80     INFLOWS - OUTFLOWS =         -25874.17
             --------                                   --------

 TOTAL STORAGE CHANGE =        6697837.38         STORAGE CHANGE =         -25839.66
       --------------                             --------------
         LAND SURFACE =        6649417.45           LAND SURFACE =          -7106.06
            SOIL ZONE =        2207717.73              SOIL ZONE =            410.61
     UNSATURATED ZONE =       -1572845.41       UNSATURATED ZONE =         -11558.07
       SATURATED ZONE =        -586452.39         SATURATED ZONE =          -7586.14

 OVERALL BUDGET ERROR =          -6462.58           BUDGET ERROR =            -34.51


  PERCENT DISCREPANCY =             -0.06    PERCENT DISCREPANCY =             -0.13



1
 SUMMARY VOLUMETRIC BUDGET FOR GSFLOW 
 DATE: 02 10 1981              CUMULATIVE TIME STEP:     133
 MODFLOW STRESS PERIOD      2     CURRENT TIME STEP:     133     ITERATIONS:       7

 -----------------------------------------------------------------------------------

   CUMULATIVE VOLUMES               L**3   RATES FOR THIS TIME STEP           L**3/T
   ------------------                      ------------------------

                                     IN                                         IN
                                     --                                         --
        PRECIPITATION =        1.1838D+07          PRECIPITATION =                  
           STREAMFLOW =                               STREAMFLOW =                  
     GW BOUNDARY FLOW =                         GW BOUNDARY FLOW =                  


                                    OUT                                        OUT
                                    ---                                        ---
   EVAPOTRANSPIRATION =        3175942.92     EVAPOTRANSPIRATION =          32343.27
           STREAMFLOW =        2037472.87             STREAMFLOW =          18138.23
     GW BOUNDARY FLOW =          86426.54       GW BOUNDARY FLOW =            650.25

   INFLOWS - OUTFLOWS =        6538410.95     INFLOWS - OUTFLOWS =         -51131.75
             --------                                   --------

 TOTAL STORAGE CHANGE =        6545160.41         STORAGE CHANGE =         -51070.05
       --------------                             --------------
         LAND SURFACE =        6627878.44           LAND SURFACE =         -32343.27
            SOIL ZONE =        2211290.38              SOIL ZONE =            467.59
     UNSATURATED ZONE =       -1651119.61       UNSATURATED ZONE =         -10804.26
       SATURATED ZONE =        -642888.81         SATURATED ZONE =          -8390.10

 OVERALL BUDGET ERROR =          -6749.46           BUDGET ERROR =            -61.70


  PERCENT DISCREPANCY =             -0.06    PERCENT DISCREPANCY =             -0.12



1
 SUMMARY VOLUMETRIC BUDGET FOR GSFLOW 
 DATE: 02 17 1981              CUMULATIVE TIME STEP:     140
 MODFLOW STRESS PERIOD      2     CURRENT TIME STEP:     140     ITERATIONS:      14

 -----------------------------------------------------------------------------------

   CUMULATIVE VOLUMES               L**3   RATES FOR THIS TIME STEP           L**3/T
   ------------------                      ------------------------

                                     IN                                         IN
                                     --                                         --
        PRECIPITATION =        1.2765D+07          PRECIPITATION =          68929.28
           STREAMFLOW =                               STREAMFLOW =                  
     GW BOUNDARY FLOW =                         GW BOUNDARY FLOW =                  


                                    OUT                                        OUT
                                    ---                                        ---
   EVAPOTRANSPIRATION =        3496918.13     EVAPOTRANSPIRATION =          57077.36
           STREAMFLOW =        2562279.39             STREAMFLOW =         123081.30
     GW BOUNDARY FLOW =          90999.53       GW BOUNDARY FLOW =            656.71

   INFLOWS - OUTFLOWS =        6614772.05     INFLOWS - OUTFLOWS =        -111886.08
             --------                                   --------

 TOTAL STORAGE CHANGE =        6621757.90         STORAGE CHANGE =        -111881.42
       --------------                             --------------
         LAND SURFACE =        5733342.75           LAND SURFACE =        -263707.47
            SOIL ZONE =        2959032.67              SOIL ZONE =          72002.77
     UNSATURATED ZONE =       -1409668.15       UNSATURATED ZONE =          77539.99
       SATURATED ZONE =        -660949.36         SATURATED ZONE =           2283.29

 OVERALL BUDGET ERROR =          -6985.85           BUDGET ERROR =             -4.67


  PERCENT DISCREPANCY =             -0.05    PERCENT DISCREPANCY =             -0.00



1
 SUMMARY VOLUMETRIC BUDGET FOR GSFLOW 
 DATE: 02 24 1981              CUMULATIVE TIME STEP:     147
 MODFLOW STRESS PERIOD      2     CURRENT TIME STEP:     147     ITERATIONS:      14

 -----------------------------------------------------------------------------------

   CUMULATIVE VOLUMES               L**3   RATES FOR THIS TIME STEP           L**3/T
   ------------------                      ------------------------

                                     IN                                         IN
                                     --                                         --
        PRECIPITATION =        1.3179D+07          PRECIPITATION =         344646.37
           STREAMFLOW =                               STREAMFLOW =                  
     GW BOUNDARY FLOW =                         GW BOUNDARY FLOW =                  


                                    OUT                                        OUT
                                    ---                                        ---
   EVAPOTRANSPIRATION =        3805895.44     EVAPOTRANSPIRATION =          18156.56
           STREAMFLOW =        3129748.66             STREAMFLOW =          52288.11
     GW BOUNDARY FLOW =          95593.68       GW BOUNDARY FLOW =            655.34

   INFLOWS - OUTFLOWS =        6147306.97     INFLOWS - OUTFLOWS =         273546.35
             --------                                   --------

 TOTAL STORAGE CHANGE =        6154194.72         STORAGE CHANGE =         273531.39
       --------------                             --------------
         LAND SURFACE =        5134001.57           LAND SURFACE =         302140.01
            SOIL ZONE =        2702161.56              SOIL ZONE =         -60981.91
     UNSATURATED ZONE =       -1044743.32       UNSATURATED ZONE =          30096.14
       SATURATED ZONE =        -637225.09         SATURATED ZONE =           2277.14

 OVERALL BUDGET ERROR =          -6887.75           BUDGET ERROR =             14.97


  PERCENT DISCREPANCY =             -0.05    PERCENT DISCREPANCY =              0.00



1
 SUMMARY VOLUMETRIC BUDGET FOR GSFLOW 
 DATE: 03 03 1981              CUMULATIVE TIME STEP:     154
 MODFLOW STRESS PERIOD      2     CURRENT TIME STEP:     154     ITERATIONS:      11

 -----------------------------------------------------------------------------------

   CUMULATIVE VOLUMES               L**3   RATES FOR THIS TIME STEP           L**3/T
   ------------------                      ------------------------

                                     IN                                         IN
                                     --                                         --
        PRECIPITATION =        1.3447D+07          PRECIPITATION =                  
           STREAMFLOW =                               STREAMFLOW =                  
     GW BOUNDARY FLOW =                         GW BOUNDARY FLOW =                  


                                    OUT                                        OUT
                                    ---                                        ---
   EVAPOTRANSPIRATION =        3952448.96     EVAPOTRANSPIRATION =          40411.55
           STREAMFLOW =        3354255.87             STREAMFLOW =          27363.91
     GW BOUNDARY FLOW =         100166.84       GW BOUNDARY FLOW =            652.31

   INFLOWS - OUTFLOWS =        6039731.37     INFLOWS - OUTFLOWS =         -68427.77
             --------                                   --------

 TOTAL STORAGE CHANGE =        6046462.51         STORAGE CHANGE =         -68449.84
       --------------                             --------------
         LAND SURFACE =        5236571.47           LAND SURFACE =         -57449.18
            SOIL ZONE =        2486535.87              SOIL ZONE =             90.73
     UNSATURATED ZONE =       -1036084.26       UNSATURATED ZONE =          -9215.69
       SATURATED ZONE =        -640560.57         SATURATED ZONE =          -1875.70

 OVERALL BUDGET ERROR =          -6731.14           BUDGET ERROR =             22.07


  PERCENT DISCREPANCY =             -0.05    PERCENT DISCREPANCY =              0.03



1
 SUMMARY VOLUMETRIC BUDGET FOR GSFLOW 
 DATE: 03 10 1981              CUMULATIVE TIME STEP:     161
 MODFLOW STRESS PERIOD      2     CURRENT TIME STEP:     161     ITERATIONS:      11

 -----------------------------------------------------------------------------------

   CUMULATIVE VOLUMES               L**3   RATES FOR THIS TIME STEP           L**3/T
   ------------------                      ------------------------

                                     IN                                         IN
                                     --                                         --
        PRECIPITATION =        1.3493D+07          PRECIPITATION =                  
           STREAMFLOW =                               STREAMFLOW =                  
     GW BOUNDARY FLOW =                         GW BOUNDARY FLOW =                  


                                    OUT                                        OUT
                                    ---                                        ---
   EVAPOTRANSPIRATION =        4240235.63     EVAPOTRANSPIRATION =          59674.26
           STREAMFLOW =        3579460.19             STREAMFLOW =          41728.37
     GW BOUNDARY FLOW =         104732.05       GW BOUNDARY FLOW =            652.77

   INFLOWS - OUTFLOWS =        5568513.28     INFLOWS - OUTFLOWS =        -102055.40
             --------                                   --------

 TOTAL STORAGE CHANGE =        5575125.04         STORAGE CHANGE =        -102070.28
       --------------                             --------------
         LAND SURFACE =        4665498.39           LAND SURFACE =        -147188.93
            SOIL ZONE =        2590350.86              SOIL ZONE =          29755.57
     UNSATURATED ZONE =       -1026942.14       UNSATURATED ZONE =          16248.82
       SATURATED ZONE =        -653782.06         SATURATED ZONE =           -885.74

 OVERALL BUDGET ERROR =          -6611.77           BUDGET ERROR =             14.89


  PERCENT DISCREPANCY =             -0.05    PERCENT DISCREPANCY =              0.01



1
 SUMMARY VOLUMETRIC BUDGET FOR GSFLOW 
 DATE: 03 17 1981              CUMULATIVE TIME STEP:     168
 MODFLOW STRESS PERIOD      2     CURRENT TIME STEP:     168     ITERATIONS:       9

 -----------------------------------------------------------------------------------

   CUMULATIVE VOLUMES               L**3   RATES FOR THIS TIME STEP           L**3/T
   ------------------                      ------------------------

                                     IN                                         IN
                                     --                                         --
        PRECIPITATION =        1.3744D+07          PRECIPITATION =                  
           STREAMFLOW =                               STREAMFLOW =                  
     GW BOUNDARY FLOW =                         GW BOUNDARY FLOW =                  


                                    OUT                                        OUT
                                    ---                                        ---
   EVAPOTRANSPIRATION =        4554692.41     EVAPOTRANSPIRATION =          33262.65
           STREAMFLOW =        3802222.68             STREAMFLOW =          23961.69
     GW BOUNDARY FLOW =         109298.79       GW BOUNDARY FLOW =            651.83

   INFLOWS - OUTFLOWS =        5278277.01     INFLOWS - OUTFLOWS =         -57876.17
             --------                                   --------

 TOTAL STORAGE CHANGE =        5284757.60         STORAGE CHANGE =         -57889.18
       --------------                             --------------
         LAND SURFACE =        4532338.77           LAND SURFACE =         -32994.50
            SOIL ZONE =        2440347.13              SOIL ZONE =          -5491.13
     UNSATURATED ZONE =       -1015877.69       UNSATURATED ZONE =         -14927.42
       SATURATED ZONE =        -672050.61         SATURATED ZONE =          -4476.12

 OVERALL BUDGET ERROR =          -6480.59           BUDGET ERROR =             13.01


  PERCENT DISCREPANCY =             -0.05    PERCENT DISCREPANCY =              0.02



1
 SUMMARY VOLUMETRIC BUDGET FOR GSFLOW 
 DATE: 03 24 1981              CUMULATIVE TIME STEP:     175
 MODFLOW STRESS PERIOD      2     CURRENT TIME STEP:     175     ITERATIONS:      10

 -----------------------------------------------------------------------------------

   CUMULATIVE VOLUMES               L**3   RATES FOR THIS TIME STEP           L**3/T
   ------------------                      ------------------------

                                     IN                                         IN
                                     --                                         --
        PRECIPITATION =        1.4367D+07          PRECIPITATION =                  
           STREAMFLOW =                               STREAMFLOW =                  
     GW BOUNDARY FLOW =                         GW BOUNDARY FLOW =                  


                                    OUT                                        OUT
                                    ---                                        ---
   EVAPOTRANSPIRATION =        4874515.69     EVAPOTRANSPIRATION =          80764.17
           STREAMFLOW =        3968459.08             STREAMFLOW =          25209.40
     GW BOUNDARY FLOW =         113858.50       GW BOUNDARY FLOW =            651.29

   INFLOWS - OUTFLOWS =        5409912.25     INFLOWS - OUTFLOWS =        -106624.85
             --------                                   --------

 TOTAL STORAGE CHANGE =        5416350.74         STORAGE CHANGE =        -106631.54
       --------------                             --------------
         LAND SURFACE =        4882235.57           LAND SURFACE =         -56598.13
            SOIL ZONE =        2340488.58              SOIL ZONE =         -38156.00
     UNSATURATED ZONE =       -1098004.30       UNSATURATED ZONE =          -6618.94
       SATURATED ZONE =        -708369.10         SATURATED ZONE =          -5258.47

 OVERALL BUDGET ERROR =          -6438.49           BUDGET ERROR =              6.69


  PERCENT DISCREPANCY =             -0.04    PERCENT DISCREPANCY =              0.01



1
 SUMMARY VOLUMETRIC BUDGET FOR GSFLOW 
 DATE: 03 31 1981              CUMULATIVE TIME STEP:     182
 MODFLOW STRESS PERIOD      2     CURRENT TIME STEP:     182     ITERATIONS:      12

 -----------------------------------------------------------------------------------

   CUMULATIVE VOLUMES               L**3   RATES FOR THIS TIME STEP           L**3/T
   ------------------                      ------------------------

                                     IN                                         IN
                                     --                                         --
        PRECIPITATION =        1.5777D+07          PRECIPITATION =                  
           STREAMFLOW =                               STREAMFLOW =                  
     GW BOUNDARY FLOW =                         GW BOUNDARY FLOW =                  


                                    OUT                                        OUT
                                    ---                                        ---
   EVAPOTRANSPIRATION =        5262688.98     EVAPOTRANSPIRATION =          42424.06
           STREAMFLOW =        4417853.08             STREAMFLOW =          33752.29
     GW BOUNDARY FLOW =         118437.02       GW BOUNDARY FLOW =            653.17

   INFLOWS - OUTFLOWS =        5977768.91     INFLOWS - OUTFLOWS =         -76829.52
             --------                                   --------

 TOTAL STORAGE CHANGE =        5984099.12         STORAGE CHANGE =         -76854.30
       --------------                             --------------
         LAND SURFACE =        5101875.85           LAND SURFACE =         -42987.31
            SOIL ZONE =        2506345.84              SOIL ZONE =         -32441.04
     UNSATURATED ZONE =        -913825.32       UNSATURATED ZONE =            762.88
       SATURATED ZONE =        -710297.24         SATURATED ZONE =          -2188.84

 OVERALL BUDGET ERROR =          -6330.21           BUDGET ERROR =             24.79


  PERCENT DISCREPANCY =             -0.04    PERCENT DISCREPANCY =              0.03



1
 SUMMARY VOLUMETRIC BUDGET FOR GSFLOW 
 DATE: 04 07 1981              CUMULATIVE TIME STEP:     189
 MODFLOW STRESS PERIOD      2     CURRENT TIME STEP:     189     ITERATIONS:      10

 -----------------------------------------------------------------------------------

   CUMULATIVE VOLUMES               L**3   RATES FOR THIS TIME STEP           L**3/T
   ------------------                      ------------------------

                                     IN                                         IN
                                     --                                         --
        PRECIPITATION =        1.6121D+07          PRECIPITATION =                  
           STREAMFLOW =                               STREAMFLOW =                  
     GW BOUNDARY FLOW =                         GW BOUNDARY FLOW =                  


                                    OUT                                        OUT
                                    ---                                        ---
   EVAPOTRANSPIRATION =        5857137.79     EVAPOTRANSPIRATION =          97287.85
           STREAMFLOW =        4713366.40             STREAMFLOW =          42221.62
     GW BOUNDARY FLOW =         123010.10       GW BOUNDARY FLOW =            653.57

   INFLOWS - OUTFLOWS =        5427953.32     INFLOWS - OUTFLOWS =        -140163.04
             --------                                   --------

 TOTAL STORAGE CHANGE =        5434151.21         STORAGE CHANGE =        -140183.16
       --------------                             --------------
         LAND SURFACE =        4536824.58           LAND SURFACE =        -138203.79
            SOIL ZONE =        2467669.27              SOIL ZONE =         -11875.31
     UNSATURATED ZONE =        -852903.15       UNSATURATED ZONE =          10404.28
       SATURATED ZONE =        -717439.49         SATURATED ZONE =           -508.34

 OVERALL BUDGET ERROR =          -6197.89           BUDGET ERROR =             20.12


  PERCENT DISCREPANCY =             -0.04    PERCENT DISCREPANCY =              0.01



1
 SUMMARY VOLUMETRIC BUDGET FOR GSFLOW 
 DATE: 04 14 1981              CUMULATIVE TIME STEP:     196
 MODFLOW STRESS PERIOD      2     CURRENT TIME STEP:     196     ITERATIONS:      13

 -----------------------------------------------------------------------------------

   CUMULATIVE VOLUMES               L**3   RATES FOR THIS TIME STEP           L**3/T
   ------------------                      ------------------------

                                     IN                                         IN
                                     --                                         --
        PRECIPITATION =        1.6121D+07          PRECIPITATION =                  
           STREAMFLOW =                               STREAMFLOW =                  
     GW BOUNDARY FLOW =                         GW BOUNDARY FLOW =                  


                                    OUT                                        OUT
                                    ---                                        ---
   EVAPOTRANSPIRATION =        6720566.95     EVAPOTRANSPIRATION =         187136.52
           STREAMFLOW =        5051379.94             STREAMFLOW =          60992.64
     GW BOUNDARY FLOW =         127585.88       GW BOUNDARY FLOW =            653.97

   INFLOWS - OUTFLOWS =        4221934.84     INFLOWS - OUTFLOWS =        -248783.13
             --------                                   --------

 TOTAL STORAGE CHANGE =        4227975.27         STORAGE CHANGE =        -248799.84
       --------------                             --------------
         LAND SURFACE =        3249108.93           LAND SURFACE =        -276414.16
            SOIL ZONE =        2439346.45              SOIL ZONE =           -680.37
     UNSATURATED ZONE =        -744439.69       UNSATURATED ZONE =          26226.39
       SATURATED ZONE =        -716040.43         SATURATED ZONE =           2068.31

 OVERALL BUDGET ERROR =          -6040.43           BUDGET ERROR =             16.71


  PERCENT DISCREPANCY =             -0.04    PERCENT DISCREPANCY =              0.01



1
 SUMMARY VOLUMETRIC BUDGET FOR GSFLOW 
 DATE: 04 21 1981              CUMULATIVE TIME STEP:     203
 MODFLOW STRESS PERIOD      2     CURRENT TIME STEP:     203     ITERATIONS:      14

 -----------------------------------------------------------------------------------

   CUMULATIVE VOLUMES               L**3   RATES FOR THIS TIME STEP           L**3/T
   ------------------                      ------------------------

                                     IN                                         IN
                                     --                                         --
        PRECIPITATION =        1.6310D+07          PRECIPITATION =                  
           STREAMFLOW =                               STREAMFLOW =                  
     GW BOUNDARY FLOW =                         GW BOUNDARY FLOW =                  


                                    OUT                                        OUT
                                    ---                                        ---
   EVAPOTRANSPIRATION =        7764646.52     EVAPOTRANSPIRATION =         153863.14
           STREAMFLOW =        5438824.61             STREAMFLOW =          53968.49
     GW BOUNDARY FLOW =         132160.34       GW BOUNDARY FLOW =            653.15

   INFLOWS - OUTFLOWS =        2974611.18     INFLOWS - OUTFLOWS =        -208484.77
             --------                                   --------

 TOTAL STORAGE CHANGE =        2980483.67         STORAGE CHANGE =        -208504.16
       --------------                             --------------
         LAND SURFACE =        1941586.43           LAND SURFACE =        -141315.80
            SOIL ZONE =        2325823.40              SOIL ZONE =         -93505.87
     UNSATURATED ZONE =        -589558.65       UNSATURATED ZONE =          22929.80
       SATURATED ZONE =        -697367.51         SATURATED ZONE =           3387.71

 OVERALL BUDGET ERROR =          -5872.50           BUDGET ERROR =             19.39


  PERCENT DISCREPANCY =             -0.04    PERCENT DISCREPANCY =              0.01



1
 SUMMARY VOLUMETRIC BUDGET FOR GSFLOW 
 DATE: 04 28 1981              CUMULATIVE TIME STEP:     210
 MODFLOW STRESS PERIOD      2     CURRENT TIME STEP:     210     ITERATIONS:      14

 -----------------------------------------------------------------------------------

   CUMULATIVE VOLUMES               L**3   RATES FOR THIS TIME STEP           L**3/T
   ------------------                      ------------------------

                                     IN                                         IN
                                     --                                         --
        PRECIPITATION =        1.6515D+07          PRECIPITATION =                  
           STREAMFLOW =                               STREAMFLOW =                  
     GW BOUNDARY FLOW =                         GW BOUNDARY FLOW =                  


                                    OUT                                        OUT
                                    ---                                        ---
   EVAPOTRANSPIRATION =        9019280.18     EVAPOTRANSPIRATION =         210898.32
           STREAMFLOW =        5699121.37             STREAMFLOW =          30434.35
     GW BOUNDARY FLOW =         136723.89       GW BOUNDARY FLOW =            651.00

   INFLOWS - OUTFLOWS =        1660307.45     INFLOWS - OUTFLOWS =        -241983.67
             --------                                   --------

 TOTAL STORAGE CHANGE =        1666001.32         STORAGE CHANGE =        -242005.18
       --------------                             --------------
         LAND SURFACE =        1047886.51           LAND SURFACE =        -108965.88
            SOIL ZONE =        1836248.35              SOIL ZONE =        -138372.87
     UNSATURATED ZONE =        -535703.62       UNSATURATED ZONE =           3388.07
       SATURATED ZONE =        -682429.93         SATURATED ZONE =           1945.50

 OVERALL BUDGET ERROR =          -5693.87           BUDGET ERROR =             21.51


  PERCENT DISCREPANCY =             -0.03    PERCENT DISCREPANCY =              0.01



1
 SUMMARY VOLUMETRIC BUDGET FOR GSFLOW 
 DATE: 05 05 1981              CUMULATIVE TIME STEP:     217
 MODFLOW STRESS PERIOD      2     CURRENT TIME STEP:     217     ITERATIONS:      14

 -----------------------------------------------------------------------------------

   CUMULATIVE VOLUMES               L**3   RATES FOR THIS TIME STEP           L**3/T
   ------------------                      ------------------------

                                     IN                                         IN
                                     --                                         --
        PRECIPITATION =        1.6515D+07          PRECIPITATION =                  
           STREAMFLOW =                               STREAMFLOW =                  
     GW BOUNDARY FLOW =                         GW BOUNDARY FLOW =                  


                                    OUT                                        OUT
                                    ---                                        ---
   EVAPOTRANSPIRATION =        9878284.28     EVAPOTRANSPIRATION =          47102.08
           STREAMFLOW =        5822074.80             STREAMFLOW =          11726.00
     GW BOUNDARY FLOW =         141272.80       GW BOUNDARY FLOW =            649.02

   INFLOWS - OUTFLOWS =         673801.00     INFLOWS - OUTFLOWS =         -59477.09
             --------                                   --------

 TOTAL STORAGE CHANGE =         679350.52         STORAGE CHANGE =         -59490.83
       --------------                             --------------
         LAND SURFACE =         583908.85           LAND SURFACE =         -19597.75
            SOIL ZONE =        1390115.28              SOIL ZONE =         -23437.47
     UNSATURATED ZONE =        -605779.12       UNSATURATED ZONE =         -14492.94
       SATURATED ZONE =        -688894.49         SATURATED ZONE =          -1962.67

 OVERALL BUDGET ERROR =          -5549.52           BUDGET ERROR =             13.74


  PERCENT DISCREPANCY =             -0.03    PERCENT DISCREPANCY =              0.02



1
 SUMMARY VOLUMETRIC BUDGET FOR GSFLOW 
 DATE: 05 12 1981              CUMULATIVE TIME STEP:     224
 MODFLOW STRESS PERIOD      2     CURRENT TIME STEP:     224     ITERATIONS:      12

 -----------------------------------------------------------------------------------

   CUMULATIVE VOLUMES               L**3   RATES FOR THIS TIME STEP           L**3/T
   ------------------                      ------------------------

                                     IN                                         IN
                                     --                                         --
        PRECIPITATION =        1.6515D+07          PRECIPITATION =                  
           STREAMFLOW =                               STREAMFLOW =                  
     GW BOUNDARY FLOW =                         GW BOUNDARY FLOW =                  


                                    OUT                                        OUT
                                    ---                                        ---
   EVAPOTRANSPIRATION =        1.0411D+07     EVAPOTRANSPIRATION =         101887.22
           STREAMFLOW =        5903247.11             STREAMFLOW =          12843.50
     GW BOUNDARY FLOW =         145812.90       GW BOUNDARY FLOW =            648.49

   INFLOWS - OUTFLOWS =          55414.61     INFLOWS - OUTFLOWS =        -115379.20
             --------                                   --------

 TOTAL STORAGE CHANGE =          60862.06         STORAGE CHANGE =        -115389.58
       --------------                             --------------
         LAND SURFACE =         364139.12           LAND SURFACE =         -39545.55
            SOIL ZONE =        1107801.72              SOIL ZONE =         -61035.03
     UNSATURATED ZONE =        -700102.83       UNSATURATED ZONE =         -10750.52
       SATURATED ZONE =        -710975.94         SATURATED ZONE =          -4058.47

 OVERALL BUDGET ERROR =          -5447.45           BUDGET ERROR =             10.38


  PERCENT DISCREPANCY =             -0.03    PERCENT DISCREPANCY =              0.01



1
 SUMMARY VOLUMETRIC BUDGET FOR GSFLOW 
 DATE: 05 19 1981              CUMULATIVE TIME STEP:     231
 MODFLOW STRESS PERIOD      2     CURRENT TIME STEP:     231     ITERATIONS:      19

 -----------------------------------------------------------------------------------

   CUMULATIVE VOLUMES               L**3   RATES FOR THIS TIME STEP           L**3/T
   ------------------                      ------------------------

                                     IN                                         IN
                                     --                                         --
        PRECIPITATION =        1.7837D+07          PRECIPITATION =         169045.43
           STREAMFLOW =                               STREAMFLOW =                  
     GW BOUNDARY FLOW =                         GW BOUNDARY FLOW =                  


                                    OUT                                        OUT
                                    ---                                        ---
   EVAPOTRANSPIRATION =        1.0751D+07     EVAPOTRANSPIRATION =          31098.89
           STREAMFLOW =        6057966.55             STREAMFLOW =          31853.10
     GW BOUNDARY FLOW =         150354.58       GW BOUNDARY FLOW =            649.99

   INFLOWS - OUTFLOWS =         877398.00     INFLOWS - OUTFLOWS =         105443.44
             --------                                   --------

 TOTAL STORAGE CHANGE =         882780.99         STORAGE CHANGE =         105441.37
       --------------                             --------------
         LAND SURFACE =         315733.71           LAND SURFACE =          16905.78
            SOIL ZONE =        2049823.17              SOIL ZONE =          85739.79
     UNSATURATED ZONE =        -738969.45       UNSATURATED ZONE =           6641.62
       SATURATED ZONE =        -743806.43         SATURATED ZONE =          -3845.82

 OVERALL BUDGET ERROR =          -5383.00           BUDGET ERROR =              2.07


  PERCENT DISCREPANCY =             -0.03    PERCENT DISCREPANCY =              0.00



1
 SUMMARY VOLUMETRIC BUDGET FOR GSFLOW 
 DATE: 05 26 1981              CUMULATIVE TIME STEP:     238
 MODFLOW STRESS PERIOD      2     CURRENT TIME STEP:     238     ITERATIONS:      14

 -----------------------------------------------------------------------------------

   CUMULATIVE VOLUMES               L**3   RATES FOR THIS TIME STEP           L**3/T
   ------------------                      ------------------------

                                     IN                                         IN
                                     --                                         --
        PRECIPITATION =        1.8252D+07          PRECIPITATION =         284303.67
           STREAMFLOW =                               STREAMFLOW =                  
     GW BOUNDARY FLOW =                         GW BOUNDARY FLOW =                  


                                    OUT                                        OUT
                                    ---                                        ---
   EVAPOTRANSPIRATION =        1.1550D+07     EVAPOTRANSPIRATION =         126247.52
           STREAMFLOW =        6196143.91             STREAMFLOW =          24175.71
     GW BOUNDARY FLOW =         154898.96       GW BOUNDARY FLOW =            648.98

   INFLOWS - OUTFLOWS =         351239.66     INFLOWS - OUTFLOWS =         133231.46
             --------                                   --------

 TOTAL STORAGE CHANGE =         356567.30         STORAGE CHANGE =         133227.23
       --------------                             --------------
         LAND SURFACE =         197572.68           LAND SURFACE =         -13397.86
            SOIL ZONE =        1709816.94              SOIL ZONE =         158549.53
     UNSATURATED ZONE =        -768175.73       UNSATURATED ZONE =          -6782.10
       SATURATED ZONE =        -782646.58         SATURATED ZONE =          -5142.34

 OVERALL BUDGET ERROR =          -5327.63           BUDGET ERROR =              4.23


  PERCENT DISCREPANCY =             -0.03    PERCENT DISCREPANCY =              0.00



1
 SUMMARY VOLUMETRIC BUDGET FOR GSFLOW 
 DATE: 06 02 1981              CUMULATIVE TIME STEP:     245
 MODFLOW STRESS PERIOD      2     CURRENT TIME STEP:     245     ITERATIONS:      17

 -----------------------------------------------------------------------------------

   CUMULATIVE VOLUMES               L**3   RATES FOR THIS TIME STEP           L**3/T
   ------------------                      ------------------------

                                     IN                                         IN
                                     --                                         --
        PRECIPITATION =        1.8318D+07          PRECIPITATION =          50869.96
           STREAMFLOW =                               STREAMFLOW =                  
     GW BOUNDARY FLOW =                         GW BOUNDARY FLOW =                  


                                    OUT                                        OUT
                                    ---                                        ---
   EVAPOTRANSPIRATION =        1.2378D+07     EVAPOTRANSPIRATION =          66875.64
           STREAMFLOW =        6282524.10             STREAMFLOW =           9141.30
     GW BOUNDARY FLOW =         159436.88       GW BOUNDARY FLOW =            647.73

   INFLOWS - OUTFLOWS =        -501704.86     INFLOWS - OUTFLOWS =         -25794.71
             --------                                   --------

 TOTAL STORAGE CHANGE =        -496420.60         STORAGE CHANGE =         -25798.85
       --------------                             --------------
         LAND SURFACE =         119474.97           LAND SURFACE =          25659.25
            SOIL ZONE =        1064418.03              SOIL ZONE =         -31313.43
     UNSATURATED ZONE =        -847926.13       UNSATURATED ZONE =         -12410.32
       SATURATED ZONE =        -832387.48         SATURATED ZONE =          -7734.34

 OVERALL BUDGET ERROR =          -5284.26           BUDGET ERROR =              4.14


  PERCENT DISCREPANCY =             -0.03    PERCENT DISCREPANCY =              0.01



1
 SUMMARY VOLUMETRIC BUDGET FOR GSFLOW 
 DATE: 06 09 1981              CUMULATIVE TIME STEP:     252
 MODFLOW STRESS PERIOD      2     CURRENT TIME STEP:     252     ITERATIONS:      15

 -----------------------------------------------------------------------------------

   CUMULATIVE VOLUMES               L**3   RATES FOR THIS TIME STEP           L**3/T
   ------------------                      ------------------------

                                     IN                                         IN
                                     --                                         --
        PRECIPITATION =        1.8318D+07          PRECIPITATION =                  
           STREAMFLOW =                               STREAMFLOW =                  
     GW BOUNDARY FLOW =                         GW BOUNDARY FLOW =                  


                                    OUT                                        OUT
                                    ---                                        ---
   EVAPOTRANSPIRATION =        1.2929D+07     EVAPOTRANSPIRATION =          55651.00
           STREAMFLOW =        6337516.85             STREAMFLOW =           7233.83
     GW BOUNDARY FLOW =         163968.45       GW BOUNDARY FLOW =            647.16

   INFLOWS - OUTFLOWS =       -1112659.83     INFLOWS - OUTFLOWS =         -63531.99
             --------                                   --------

 TOTAL STORAGE CHANGE =       -1107426.99         STORAGE CHANGE =         -63541.67
       --------------                             --------------
         LAND SURFACE =          39669.52           LAND SURFACE =          -4382.74
            SOIL ZONE =         675401.50              SOIL ZONE =         -38605.10
     UNSATURATED ZONE =        -932404.64       UNSATURATED ZONE =         -12127.38
       SATURATED ZONE =        -890093.38         SATURATED ZONE =          -8426.46

 OVERALL BUDGET ERROR =          -5232.84           BUDGET ERROR =              9.68


  PERCENT DISCREPANCY =             -0.03    PERCENT DISCREPANCY =              0.02



1
 SUMMARY VOLUMETRIC BUDGET FOR GSFLOW 
 DATE: 06 16 1981              CUMULATIVE TIME STEP:     259
 MODFLOW STRESS PERIOD      2     CURRENT TIME STEP:     259     ITERATIONS:      13

 -----------------------------------------------------------------------------------

   CUMULATIVE VOLUMES               L**3   RATES FOR THIS TIME STEP           L**3/T
   ------------------                      ------------------------

                                     IN                                         IN
                                     --                                         --
        PRECIPITATION =        1.8318D+07          PRECIPITATION =                  
           STREAMFLOW =                               STREAMFLOW =                  
     GW BOUNDARY FLOW =                         GW BOUNDARY FLOW =                  


                                    OUT                                        OUT
                                    ---                                        ---
   EVAPOTRANSPIRATION =        1.3143D+07     EVAPOTRANSPIRATION =          49264.56
           STREAMFLOW =        6385325.44             STREAMFLOW =           6682.92
     GW BOUNDARY FLOW =         168497.38       GW BOUNDARY FLOW =            646.89

   INFLOWS - OUTFLOWS =       -1378181.24     INFLOWS - OUTFLOWS =         -56594.36
             --------                                   --------

 TOTAL STORAGE CHANGE =       -1372991.30         STORAGE CHANGE =         -56596.54
       --------------                             --------------
         LAND SURFACE =          25589.68           LAND SURFACE =          -3042.77
            SOIL ZONE =         573861.69              SOIL ZONE =         -31848.59
     UNSATURATED ZONE =       -1021578.58       UNSATURATED ZONE =         -12847.76
       SATURATED ZONE =        -950864.09         SATURATED ZONE =          -8857.42

 OVERALL BUDGET ERROR =          -5189.93           BUDGET ERROR =              2.18


  PERCENT DISCREPANCY =             -0.03    PERCENT DISCREPANCY =              0.00



1
 SUMMARY VOLUMETRIC BUDGET FOR GSFLOW 
 DATE: 06 23 1981              CUMULATIVE TIME STEP:     266
 MODFLOW STRESS PERIOD      2     CURRENT TIME STEP:     266     ITERATIONS:      18

 -----------------------------------------------------------------------------------

   CUMULATIVE VOLUMES               L**3   RATES FOR THIS TIME STEP           L**3/T
   ------------------                      ------------------------

                                     IN                                         IN
                                     --                                         --
        PRECIPITATION =        1.8318D+07          PRECIPITATION =                  
           STREAMFLOW =                               STREAMFLOW =                  
     GW BOUNDARY FLOW =                         GW BOUNDARY FLOW =                  


                                    OUT                                        OUT
                                    ---                                        ---
   EVAPOTRANSPIRATION =        1.3485D+07     EVAPOTRANSPIRATION =          40398.11
[...]
             --------                                   --------

 TOTAL STORAGE CHANGE =       -7146362.46         STORAGE CHANGE =         -57157.49
       --------------                             --------------
         LAND SURFACE =         214963.45           LAND SURFACE =         -10645.32
            SOIL ZONE =         331591.35              SOIL ZONE =         -24976.91
     UNSATURATED ZONE =        5324427.23       UNSATURATED ZONE =         -28429.40
       SATURATED ZONE =       -1.3017D+07         SATURATED ZONE =           6894.13

 OVERALL BUDGET ERROR =         -24485.50           BUDGET ERROR =             22.85


  PERCENT DISCREPANCY =             -0.01    PERCENT DISCREPANCY =              0.04



1
 SUMMARY VOLUMETRIC BUDGET FOR GSFLOW 
 DATE: 07 30 1996              CUMULATIVE TIME STEP:    5782
 MODFLOW STRESS PERIOD      2     CURRENT TIME STEP:    5782     ITERATIONS:      15

 -----------------------------------------------------------------------------------

   CUMULATIVE VOLUMES               L**3   RATES FOR THIS TIME STEP           L**3/T
   ------------------                      ------------------------

                                     IN                                         IN
                                     --                                         --
        PRECIPITATION =        4.6511D+08          PRECIPITATION =                  
           STREAMFLOW =                               STREAMFLOW =                  
     GW BOUNDARY FLOW =                         GW BOUNDARY FLOW =                  


                                    OUT                                        OUT
                                    ---                                        ---
   EVAPOTRANSPIRATION =        2.8331D+08     EVAPOTRANSPIRATION =          33112.02
           STREAMFLOW =        1.8555D+08             STREAMFLOW =           7076.21
     GW BOUNDARY FLOW =        3742258.94       GW BOUNDARY FLOW =            650.92

   INFLOWS - OUTFLOWS =       -7484894.13     INFLOWS - OUTFLOWS =         -40839.15
             --------                                   --------

 TOTAL STORAGE CHANGE =       -7460597.74         STORAGE CHANGE =         -40871.79
       --------------                             --------------
         LAND SURFACE =         152309.39           LAND SURFACE =          -7555.65
            SOIL ZONE =         231684.86              SOIL ZONE =         -11744.09
     UNSATURATED ZONE =        5125803.17       UNSATURATED ZONE =         -27810.11
       SATURATED ZONE =       -1.2970D+07         SATURATED ZONE =           6238.05

 OVERALL BUDGET ERROR =         -24296.38           BUDGET ERROR =             32.64


  PERCENT DISCREPANCY =             -0.01    PERCENT DISCREPANCY =              0.08



1
 SUMMARY VOLUMETRIC BUDGET FOR GSFLOW 
 DATE: 08 06 1996              CUMULATIVE TIME STEP:    5789
 MODFLOW STRESS PERIOD      2     CURRENT TIME STEP:    5789     ITERATIONS:      15

 -----------------------------------------------------------------------------------

   CUMULATIVE VOLUMES               L**3   RATES FOR THIS TIME STEP           L**3/T
   ------------------                      ------------------------

                                     IN                                         IN
                                     --                                         --
        PRECIPITATION =        4.6511D+08          PRECIPITATION =                  
           STREAMFLOW =                               STREAMFLOW =                  
     GW BOUNDARY FLOW =                         GW BOUNDARY FLOW =                  


                                    OUT                                        OUT
                                    ---                                        ---
   EVAPOTRANSPIRATION =        2.8349D+08     EVAPOTRANSPIRATION =          26325.28
           STREAMFLOW =        1.8559D+08             STREAMFLOW =           6793.48
     GW BOUNDARY FLOW =        3746815.04       GW BOUNDARY FLOW =            650.81

   INFLOWS - OUTFLOWS =       -7724111.14     INFLOWS - OUTFLOWS =         -33769.58
             --------                                   --------

 TOTAL STORAGE CHANGE =       -7700003.17         STORAGE CHANGE =         -33792.07
       --------------                             --------------
         LAND SURFACE =         111776.46           LAND SURFACE =          -5017.65
            SOIL ZONE =         182443.85              SOIL ZONE =          -7542.55
     UNSATURATED ZONE =        4937259.98       UNSATURATED ZONE =         -26341.38
       SATURATED ZONE =       -1.2931D+07         SATURATED ZONE =           5109.50

 OVERALL BUDGET ERROR =         -24107.97           BUDGET ERROR =             22.49


  PERCENT DISCREPANCY =             -0.01    PERCENT DISCREPANCY =              0.07



1
 SUMMARY VOLUMETRIC BUDGET FOR GSFLOW 
 DATE: 08 13 1996              CUMULATIVE TIME STEP:    5796
 MODFLOW STRESS PERIOD      2     CURRENT TIME STEP:    5796     ITERATIONS:      15

 -----------------------------------------------------------------------------------

   CUMULATIVE VOLUMES               L**3   RATES FOR THIS TIME STEP           L**3/T
   ------------------                      ------------------------

                                     IN                                         IN
                                     --                                         --
        PRECIPITATION =        4.6531D+08          PRECIPITATION =          54454.08
           STREAMFLOW =                               STREAMFLOW =                  
     GW BOUNDARY FLOW =                         GW BOUNDARY FLOW =                  


                                    OUT                                        OUT
                                    ---                                        ---
   EVAPOTRANSPIRATION =        2.8371D+08     EVAPOTRANSPIRATION =          37164.97
           STREAMFLOW =        1.8564D+08             STREAMFLOW =           8000.25
     GW BOUNDARY FLOW =        3751370.21       GW BOUNDARY FLOW =            650.75

   INFLOWS - OUTFLOWS =       -7792479.10     INFLOWS - OUTFLOWS =           8638.11
             --------                                   --------

 TOTAL STORAGE CHANGE =       -7768517.32         STORAGE CHANGE =           8618.25
       --------------                             --------------
         LAND SURFACE =         105220.94           LAND SURFACE =          -5194.35
            SOIL ZONE =         267543.43              SOIL ZONE =          34629.46
     UNSATURATED ZONE =        4757279.41       UNSATURATED ZONE =         -25041.35
       SATURATED ZONE =       -1.2899D+07         SATURATED ZONE =           4224.50

 OVERALL BUDGET ERROR =         -23961.79           BUDGET ERROR =             19.86


  PERCENT DISCREPANCY =             -0.01    PERCENT DISCREPANCY =              0.04



1
 SUMMARY VOLUMETRIC BUDGET FOR GSFLOW 
 DATE: 08 20 1996              CUMULATIVE TIME STEP:    5803
 MODFLOW STRESS PERIOD      2     CURRENT TIME STEP:    5803     ITERATIONS:      14

 -----------------------------------------------------------------------------------

   CUMULATIVE VOLUMES               L**3   RATES FOR THIS TIME STEP           L**3/T
   ------------------                      ------------------------

                                     IN                                         IN
                                     --                                         --
        PRECIPITATION =        4.6531D+08          PRECIPITATION =                  
           STREAMFLOW =                               STREAMFLOW =                  
     GW BOUNDARY FLOW =                         GW BOUNDARY FLOW =                  


                                    OUT                                        OUT
                                    ---                                        ---
   EVAPOTRANSPIRATION =        2.8393D+08     EVAPOTRANSPIRATION =          18565.59
           STREAMFLOW =        1.8569D+08             STREAMFLOW =           6546.85
     GW BOUNDARY FLOW =        3755923.71       GW BOUNDARY FLOW =            650.32

   INFLOWS - OUTFLOWS =       -8062026.51     INFLOWS - OUTFLOWS =         -25762.76
             --------                                   --------

 TOTAL STORAGE CHANGE =       -8038243.14         STORAGE CHANGE =         -25793.00
       --------------                             --------------
         LAND SURFACE =          44442.31           LAND SURFACE =          -2851.34
            SOIL ZONE =         204041.14              SOIL ZONE =          -2274.64
     UNSATURATED ZONE =        4586962.06       UNSATURATED ZONE =         -23874.40
       SATURATED ZONE =       -1.2874D+07         SATURATED ZONE =           3207.38

 OVERALL BUDGET ERROR =         -23783.37           BUDGET ERROR =             30.25


  PERCENT DISCREPANCY =             -0.01    PERCENT DISCREPANCY =              0.12



1
 SUMMARY VOLUMETRIC BUDGET FOR GSFLOW 
 DATE: 08 27 1996              CUMULATIVE TIME STEP:    5810
 MODFLOW STRESS PERIOD      2     CURRENT TIME STEP:    5810     ITERATIONS:      13

 -----------------------------------------------------------------------------------

   CUMULATIVE VOLUMES               L**3   RATES FOR THIS TIME STEP           L**3/T
   ------------------                      ------------------------

                                     IN                                         IN
                                     --                                         --
        PRECIPITATION =        4.6531D+08          PRECIPITATION =                  
           STREAMFLOW =                               STREAMFLOW =                  
     GW BOUNDARY FLOW =                         GW BOUNDARY FLOW =                  


                                    OUT                                        OUT
                                    ---                                        ---
   EVAPOTRANSPIRATION =        2.8409D+08     EVAPOTRANSPIRATION =          18472.48
           STREAMFLOW =        1.8574D+08             STREAMFLOW =           6380.68
     GW BOUNDARY FLOW =        3760474.32       GW BOUNDARY FLOW =            649.92

   INFLOWS - OUTFLOWS =       -8271326.64     INFLOWS - OUTFLOWS =         -25503.08
             --------                                   --------

 TOTAL STORAGE CHANGE =       -8247738.40         STORAGE CHANGE =         -25532.77
       --------------                             --------------
         LAND SURFACE =          21435.24           LAND SURFACE =          -2621.72
            SOIL ZONE =         161142.71              SOIL ZONE =          -2505.79
     UNSATURATED ZONE =        4426111.70       UNSATURATED ZONE =         -22446.16
       SATURATED ZONE =       -1.2856D+07         SATURATED ZONE =           2040.90

 OVERALL BUDGET ERROR =         -23588.25           BUDGET ERROR =             29.69


  PERCENT DISCREPANCY =             -0.00    PERCENT DISCREPANCY =              0.12



1
 SUMMARY VOLUMETRIC BUDGET FOR GSFLOW 
 DATE: 09 03 1996              CUMULATIVE TIME STEP:    5817
 MODFLOW STRESS PERIOD      2     CURRENT TIME STEP:    5817     ITERATIONS:      13

 -----------------------------------------------------------------------------------

   CUMULATIVE VOLUMES               L**3   RATES FOR THIS TIME STEP           L**3/T
   ------------------                      ------------------------

                                     IN                                         IN
                                     --                                         --
        PRECIPITATION =        4.6531D+08          PRECIPITATION =                  
           STREAMFLOW =                               STREAMFLOW =                  
     GW BOUNDARY FLOW =                         GW BOUNDARY FLOW =                  


                                    OUT                                        OUT
                                    ---                                        ---
   EVAPOTRANSPIRATION =        2.8421D+08     EVAPOTRANSPIRATION =          15704.36
           STREAMFLOW =        1.8578D+08             STREAMFLOW =           6266.64
     GW BOUNDARY FLOW =        3765022.13       GW BOUNDARY FLOW =            649.51

   INFLOWS - OUTFLOWS =       -8442167.61     INFLOWS - OUTFLOWS =         -22620.51
             --------                                   --------

 TOTAL STORAGE CHANGE =       -8418795.51         STORAGE CHANGE =         -22648.99
       --------------                             --------------
         LAND SURFACE =           7240.32           LAND SURFACE =          -1278.90
            SOIL ZONE =         146148.75              SOIL ZONE =          -1207.45
     UNSATURATED ZONE =        4271947.70       UNSATURATED ZONE =         -21795.91
       SATURATED ZONE =       -1.2844D+07         SATURATED ZONE =           1633.27

 OVERALL BUDGET ERROR =         -23372.10           BUDGET ERROR =             28.47


  PERCENT DISCREPANCY =             -0.00    PERCENT DISCREPANCY =              0.13



1
 SUMMARY VOLUMETRIC BUDGET FOR GSFLOW 
 DATE: 09 10 1996              CUMULATIVE TIME STEP:    5824
 MODFLOW STRESS PERIOD      2     CURRENT TIME STEP:    5824     ITERATIONS:      12

 -----------------------------------------------------------------------------------

   CUMULATIVE VOLUMES               L**3   RATES FOR THIS TIME STEP           L**3/T
   ------------------                      ------------------------

                                     IN                                         IN
                                     --                                         --
        PRECIPITATION =        4.6531D+08          PRECIPITATION =                  
           STREAMFLOW =                               STREAMFLOW =                  
     GW BOUNDARY FLOW =                         GW BOUNDARY FLOW =                  


                                    OUT                                        OUT
                                    ---                                        ---
   EVAPOTRANSPIRATION =        2.8430D+08     EVAPOTRANSPIRATION =          15133.90
           STREAMFLOW =        1.8582D+08             STREAMFLOW =           6158.00
     GW BOUNDARY FLOW =        3769567.21       GW BOUNDARY FLOW =            649.13

   INFLOWS - OUTFLOWS =       -8579826.10     INFLOWS - OUTFLOWS =         -21941.03
             --------                                   --------

 TOTAL STORAGE CHANGE =       -8556686.50         STORAGE CHANGE =         -21979.96
       --------------                             --------------
         LAND SURFACE =           2510.71           LAND SURFACE =           -704.62
            SOIL ZONE =         153231.82              SOIL ZONE =          -1331.48
     UNSATURATED ZONE =        4122806.66       UNSATURATED ZONE =         -20900.03
       SATURATED ZONE =       -1.2835D+07         SATURATED ZONE =            956.18

 OVERALL BUDGET ERROR =         -23139.60           BUDGET ERROR =             38.93


  PERCENT DISCREPANCY =             -0.00    PERCENT DISCREPANCY =              0.18



1
 SUMMARY VOLUMETRIC BUDGET FOR GSFLOW 
 DATE: 09 17 1996              CUMULATIVE TIME STEP:    5831
 MODFLOW STRESS PERIOD      2     CURRENT TIME STEP:    5831     ITERATIONS:      12

 -----------------------------------------------------------------------------------

   CUMULATIVE VOLUMES               L**3   RATES FOR THIS TIME STEP           L**3/T
   ------------------                      ------------------------

                                     IN                                         IN
                                     --                                         --
        PRECIPITATION =        4.6637D+08          PRECIPITATION =                  
           STREAMFLOW =                               STREAMFLOW =                  
     GW BOUNDARY FLOW =                         GW BOUNDARY FLOW =                  


                                    OUT                                        OUT
                                    ---                                        ---
   EVAPOTRANSPIRATION =        2.8447D+08     EVAPOTRANSPIRATION =          52774.70
           STREAMFLOW =        1.8589D+08             STREAMFLOW =          10314.69
     GW BOUNDARY FLOW =        3774111.55       GW BOUNDARY FLOW =            649.53

   INFLOWS - OUTFLOWS =       -7768941.27     INFLOWS - OUTFLOWS =         -63738.92
             --------                                   --------

 TOTAL STORAGE CHANGE =       -7746065.30         STORAGE CHANGE =         -63773.17
       --------------                             --------------
         LAND SURFACE =            882.14           LAND SURFACE =         -33826.70
            SOIL ZONE =        1102185.29              SOIL ZONE =         -10240.72
     UNSATURATED ZONE =        3978505.66       UNSATURATED ZONE =         -20110.72
       SATURATED ZONE =       -1.2828D+07         SATURATED ZONE =            404.97

 OVERALL BUDGET ERROR =         -22875.97           BUDGET ERROR =             34.25


  PERCENT DISCREPANCY =             -0.00    PERCENT DISCREPANCY =              0.05



1
 SUMMARY VOLUMETRIC BUDGET FOR GSFLOW 
 DATE: 09 24 1996              CUMULATIVE TIME STEP:    5838
 MODFLOW STRESS PERIOD      2     CURRENT TIME STEP:    5838     ITERATIONS:      12

 -----------------------------------------------------------------------------------

   CUMULATIVE VOLUMES               L**3   RATES FOR THIS TIME STEP           L**3/T
   ------------------                      ------------------------

                                     IN                                         IN
                                     --                                         --
        PRECIPITATION =        4.6637D+08          PRECIPITATION =                  
           STREAMFLOW =                               STREAMFLOW =                  
     GW BOUNDARY FLOW =                         GW BOUNDARY FLOW =                  


                                    OUT                                        OUT
                                    ---                                        ---
   EVAPOTRANSPIRATION =        2.8496D+08     EVAPOTRANSPIRATION =          56270.53
           STREAMFLOW =        1.8594D+08             STREAMFLOW =           6726.45
     GW BOUNDARY FLOW =        3778654.34       GW BOUNDARY FLOW =            648.63

   INFLOWS - OUTFLOWS =       -8319972.54     INFLOWS - OUTFLOWS =         -63645.61
             --------                                   --------

 TOTAL STORAGE CHANGE =       -8297354.30         STORAGE CHANGE =         -63682.07
       --------------                             --------------
         LAND SURFACE =                             LAND SURFACE =                  
            SOIL ZONE =         689073.20              SOIL ZONE =         -44151.60
     UNSATURATED ZONE =        3841123.04       UNSATURATED ZONE =         -19270.13
       SATURATED ZONE =       -1.2828D+07         SATURATED ZONE =           -260.35

 OVERALL BUDGET ERROR =         -22618.25           BUDGET ERROR =             36.46


  PERCENT DISCREPANCY =             -0.00    PERCENT DISCREPANCY =              0.06



