1
 SUMMARY VOLUMETRIC BUDGET FOR GSFLOW 
 DATE: 10 07 1980              CUMULATIVE TIME STEP:       7
 MODFLOW STRESS PERIOD      2     CURRENT TIME STEP:       7     ITERATIONS:       6

 -----------------------------------------------------------------------------------

   CUMULATIVE VOLUMES               L**3   RATES FOR THIS TIME STEP           L**3/T
   ------------------                      ------------------------

                                     IN                                         IN
                                     --                                         --
        PRECIPITATION =                            PRECIPITATION =                  
           STREAMFLOW =                               STREAMFLOW =                  
     GW BOUNDARY FLOW =                         GW BOUNDARY FLOW =                  


                                    OUT                                        OUT
                                    ---                                        ---
   EVAPOTRANSPIRATION =          66592.98     EVAPOTRANSPIRATION =           9275.34
           STREAMFLOW =          42983.57             STREAMFLOW =           6070.99
     GW BOUNDARY FLOW =           4541.44       GW BOUNDARY FLOW =            648.70

   INFLOWS - OUTFLOWS =        -114117.99     INFLOWS - OUTFLOWS =         -15995.02
             --------                                   --------

 TOTAL STORAGE CHANGE =        -113584.52         STORAGE CHANGE =         -15911.66
       --------------                             --------------
         LAND SURFACE =                             LAND SURFACE =                  
            SOIL ZONE =          43921.72              SOIL ZONE =           6421.05
     UNSATURATED ZONE =        -144844.06       UNSATURATED ZONE =         -20370.92
       SATURATED ZONE =         -12662.18         SATURATED ZONE =          -1961.79

 OVERALL BUDGET ERROR =           -533.47           BUDGET ERROR =            -83.37


  PERCENT DISCREPANCY =             -0.47    PERCENT DISCREPANCY =             -0.52



1
 SUMMARY VOLUMETRIC BUDGET FOR GSFLOW 
 DATE: 10 14 1980              CUMULATIVE TIME STEP:      14
 MODFLOW STRESS PERIOD      2     CURRENT TIME STEP:      14     ITERATIONS:       6

 -----------------------------------------------------------------------------------

   CUMULATIVE VOLUMES               L**3   RATES FOR THIS TIME STEP           L**3/T
   ------------------                      ------------------------

                                     IN                                         IN
                                     --                                         --
        PRECIPITATION =         650779.83          PRECIPITATION =         164754.40
           STREAMFLOW =                               STREAMFLOW =                  
     GW BOUNDARY FLOW =                         GW BOUNDARY FLOW =                  


                                    OUT                                        OUT
                                    ---                                        ---
   EVAPOTRANSPIRATION =         162751.80     EVAPOTRANSPIRATION =          11477.54
           STREAMFLOW =          94532.80             STREAMFLOW =           7730.37
     GW BOUNDARY FLOW =           9082.98       GW BOUNDARY FLOW =            648.94

   INFLOWS - OUTFLOWS =         384412.26     INFLOWS - OUTFLOWS =         144897.55
             --------                                   --------

 TOTAL STORAGE CHANGE =         385541.57         STORAGE CHANGE =         144985.80
       --------------                             --------------
         LAND SURFACE =         183651.29           LAND SURFACE =         130477.11
            SOIL ZONE =         513708.18              SOIL ZONE =          36513.18
     UNSATURATED ZONE =        -284621.16       UNSATURATED ZONE =         -19632.34
       SATURATED ZONE =         -27196.73         SATURATED ZONE =          -2372.14

 OVERALL BUDGET ERROR =          -1129.31           BUDGET ERROR =            -88.26


  PERCENT DISCREPANCY =             -0.17    PERCENT DISCREPANCY =             -0.05



1
 SUMMARY VOLUMETRIC BUDGET FOR GSFLOW 
 DATE: 10 21 1980              CUMULATIVE TIME STEP:      21
 MODFLOW STRESS PERIOD      2     CURRENT TIME STEP:      21     ITERATIONS:       7

 -----------------------------------------------------------------------------------

   CUMULATIVE VOLUMES               L**3   RATES FOR THIS TIME STEP           L**3/T
   ------------------                      ------------------------

                                     IN                                         IN
                                     --                                         --
        PRECIPITATION =         733157.03          PRECIPITATION =                  
           STREAMFLOW =                               STREAMFLOW =                  
     GW BOUNDARY FLOW =                         GW BOUNDARY FLOW =                  


                                    OUT                                        OUT
                                    ---                                        ---
   EVAPOTRANSPIRATION =         433033.67     EVAPOTRANSPIRATION =          44096.51
           STREAMFLOW =         145992.03             STREAMFLOW =           6878.28
     GW BOUNDARY FLOW =          13624.76       GW BOUNDARY FLOW =            648.74

   INFLOWS - OUTFLOWS =         140506.57     INFLOWS - OUTFLOWS =         -51623.52
             --------                                   --------

 TOTAL STORAGE CHANGE =         142233.76         STORAGE CHANGE =         -51542.24
       --------------                             --------------
         LAND SURFACE =        8.2991D-12           LAND SURFACE =                  
            SOIL ZONE =         607134.94              SOIL ZONE =         -29687.23
     UNSATURATED ZONE =        -418881.84       UNSATURATED ZONE =         -18830.15
       SATURATED ZONE =         -46019.35         SATURATED ZONE =          -3024.85

 OVERALL BUDGET ERROR =          -1727.19           BUDGET ERROR =            -81.29


  PERCENT DISCREPANCY =             -0.24    PERCENT DISCREPANCY =             -0.16



1
 SUMMARY VOLUMETRIC BUDGET FOR GSFLOW 
 DATE: 10 28 1980              CUMULATIVE TIME STEP:      28
 MODFLOW STRESS PERIOD      2     CURRENT TIME STEP:      28     ITERATIONS:       6

 -----------------------------------------------------------------------------------

   CUMULATIVE VOLUMES               L**3   RATES FOR THIS TIME STEP           L**3/T
   ------------------                      ------------------------

                                     IN                                         IN
                                     --                                         --
        PRECIPITATION =        1070903.52          PRECIPITATION =                  
           STREAMFLOW =                               STREAMFLOW =                  
     GW BOUNDARY FLOW =                         GW BOUNDARY FLOW =                  


                                    OUT                                        OUT
                                    ---                                        ---
   EVAPOTRANSPIRATION =         623852.72     EVAPOTRANSPIRATION =          24687.25
           STREAMFLOW =         199381.09             STREAMFLOW =           7739.20
     GW BOUNDARY FLOW =          18165.88       GW BOUNDARY FLOW =            648.77

   INFLOWS - OUTFLOWS =         229503.83     INFLOWS - OUTFLOWS =         -33075.22
             --------                                   --------

 TOTAL STORAGE CHANGE =         231894.40         STORAGE CHANGE =         -32977.46
       --------------                             --------------
         LAND SURFACE =          20524.24           LAND SURFACE =         -29854.69
            SOIL ZONE =         827631.62              SOIL ZONE =          18390.48
     UNSATURATED ZONE =        -547693.72       UNSATURATED ZONE =         -18036.00
       SATURATED ZONE =         -68567.74         SATURATED ZONE =          -3477.26

 OVERALL BUDGET ERROR =          -2390.56           BUDGET ERROR =            -97.75


  PERCENT DISCREPANCY =             -0.22    PERCENT DISCREPANCY =             -0.30



1
 SUMMARY VOLUMETRIC BUDGET FOR GSFLOW 
 DATE: 11 04 1980              CUMULATIVE TIME STEP:      35
 MODFLOW STRESS PERIOD      2     CURRENT TIME STEP:      35     ITERATIONS:       9

 -----------------------------------------------------------------------------------

   CUMULATIVE VOLUMES               L**3   RATES FOR THIS TIME STEP           L**3/T
   ------------------                      ------------------------

                                     IN                                         IN
                                     --                                         --
        PRECIPITATION =        1070903.52          PRECIPITATION =                  
           STREAMFLOW =                               STREAMFLOW =                  
     GW BOUNDARY FLOW =                         GW BOUNDARY FLOW =                  


                                    OUT                                        OUT
                                    ---                                        ---
   EVAPOTRANSPIRATION =         962134.84     EVAPOTRANSPIRATION =          43312.30
           STREAMFLOW =         250307.70             STREAMFLOW =           6832.47
     GW BOUNDARY FLOW =          22706.65       GW BOUNDARY FLOW =            648.61

   INFLOWS - OUTFLOWS =        -164245.66     INFLOWS - OUTFLOWS =         -50793.38
             --------                                   --------

 TOTAL STORAGE CHANGE =        -161256.67         STORAGE CHANGE =         -50714.17
       --------------                             --------------
         LAND SURFACE =       -3.6380D-12           LAND SURFACE =                  
            SOIL ZONE =         605800.59              SOIL ZONE =         -29186.87
     UNSATURATED ZONE =        -671259.76       UNSATURATED ZONE =         -17373.83
       SATURATED ZONE =         -95797.49         SATURATED ZONE =          -4153.47

 OVERALL BUDGET ERROR =          -2988.99           BUDGET ERROR =            -79.21


  PERCENT DISCREPANCY =             -0.24    PERCENT DISCREPANCY =             -0.16



1
 SUMMARY VOLUMETRIC BUDGET FOR GSFLOW 
 DATE: 11 11 1980              CUMULATIVE TIME STEP:      42
 MODFLOW STRESS PERIOD      2     CURRENT TIME STEP:      42     ITERATIONS:       8

 -----------------------------------------------------------------------------------

   CUMULATIVE VOLUMES               L**3   RATES FOR THIS TIME STEP           L**3/T
   ------------------                      ------------------------

                                     IN                                         IN
                                     --                                         --
        PRECIPITATION =        1573762.54          PRECIPITATION =         255182.19
           STREAMFLOW =                               STREAMFLOW =                  
     GW BOUNDARY FLOW =                         GW BOUNDARY FLOW =                  


                                    OUT                                        OUT
                                    ---                                        ---
   EVAPOTRANSPIRATION =        1194014.18     EVAPOTRANSPIRATION =          17062.62
           STREAMFLOW =         305500.77             STREAMFLOW =          10505.27
     GW BOUNDARY FLOW =          27247.23       GW BOUNDARY FLOW =            648.82

   INFLOWS - OUTFLOWS =          47000.36     INFLOWS - OUTFLOWS =         226965.48
             --------                                   --------

 TOTAL STORAGE CHANGE =          50633.17         STORAGE CHANGE =         227045.66
       --------------                             --------------
         LAND SURFACE =          76836.68           LAND SURFACE =          76836.68
            SOIL ZONE =         889512.94              SOIL ZONE =         170959.68
     UNSATURATED ZONE =        -789953.34       UNSATURATED ZONE =         -16603.28
       SATURATED ZONE =        -125763.11         SATURATED ZONE =          -4147.42

 OVERALL BUDGET ERROR =          -3632.80           BUDGET ERROR =            -80.18


  PERCENT DISCREPANCY =             -0.23    PERCENT DISCREPANCY =             -0.03



1
 SUMMARY VOLUMETRIC BUDGET FOR GSFLOW 
 DATE: 11 18 1980              CUMULATIVE TIME STEP:      49
 MODFLOW STRESS PERIOD      2     CURRENT TIME STEP:      49     ITERATIONS:       6

 -----------------------------------------------------------------------------------

   CUMULATIVE VOLUMES               L**3   RATES FOR THIS TIME STEP           L**3/T
   ------------------                      ------------------------

                                     IN                                         IN
                                     --                                         --
        PRECIPITATION =        1573762.54          PRECIPITATION =                  
           STREAMFLOW =                               STREAMFLOW =                  
     GW BOUNDARY FLOW =                         GW BOUNDARY FLOW =                  


                                    OUT                                        OUT
                                    ---                                        ---
   EVAPOTRANSPIRATION =        1291025.58     EVAPOTRANSPIRATION =          23202.01
           STREAMFLOW =         365996.64             STREAMFLOW =           8952.81
     GW BOUNDARY FLOW =          31788.78       GW BOUNDARY FLOW =            648.81

   INFLOWS - OUTFLOWS =        -115048.46     INFLOWS - OUTFLOWS =         -32803.63
             --------                                   --------

 TOTAL STORAGE CHANGE =        -110747.98         STORAGE CHANGE =         -32686.33
       --------------                             --------------
         LAND SURFACE =           5214.84           LAND SURFACE =          -7686.44
            SOIL ZONE =         946760.69              SOIL ZONE =          -4169.21
     UNSATURATED ZONE =        -904001.74       UNSATURATED ZONE =         -16035.22
       SATURATED ZONE =        -158721.76         SATURATED ZONE =          -4795.46

 OVERALL BUDGET ERROR =          -4300.48           BUDGET ERROR =           -117.30


  PERCENT DISCREPANCY =             -0.25    PERCENT DISCREPANCY =             -0.36



1
 SUMMARY VOLUMETRIC BUDGET FOR GSFLOW 
 DATE: 11 25 1980              CUMULATIVE TIME STEP:      56
 MODFLOW STRESS PERIOD      2     CURRENT TIME STEP:      56     ITERATIONS:       7

 -----------------------------------------------------------------------------------

   CUMULATIVE VOLUMES               L**3   RATES FOR THIS TIME STEP           L**3/T
   ------------------                      ------------------------

                                     IN                                         IN
                                     --                                         --
        PRECIPITATION =        1648816.13          PRECIPITATION =                  
           STREAMFLOW =                               STREAMFLOW =                  
     GW BOUNDARY FLOW =                         GW BOUNDARY FLOW =                  


                                    OUT                                        OUT
                                    ---                                        ---
   EVAPOTRANSPIRATION =        1380156.84     EVAPOTRANSPIRATION =           9277.87
           STREAMFLOW =         429105.32             STREAMFLOW =           9140.57
     GW BOUNDARY FLOW =          36330.49       GW BOUNDARY FLOW =            648.82

   INFLOWS - OUTFLOWS =        -196776.53     INFLOWS - OUTFLOWS =         -19067.26
             --------                                   --------

 TOTAL STORAGE CHANGE =        -191693.48         STORAGE CHANGE =         -18969.26
       --------------                             --------------
         LAND SURFACE =          53014.08           LAND SURFACE =          -9258.02
            SOIL ZONE =         963930.31              SOIL ZONE =          11120.98
     UNSATURATED ZONE =       -1013765.62       UNSATURATED ZONE =         -15414.57
       SATURATED ZONE =        -194872.25         SATURATED ZONE =          -5417.66

 OVERALL BUDGET ERROR =          -5083.05           BUDGET ERROR =            -98.00


  PERCENT DISCREPANCY =             -0.28    PERCENT DISCREPANCY =             -0.52



1
 SUMMARY VOLUMETRIC BUDGET FOR GSFLOW 
 DATE: 12 02 1980              CUMULATIVE TIME STEP:      63
 MODFLOW STRESS PERIOD      2     CURRENT TIME STEP:      63     ITERATIONS:       8

 -----------------------------------------------------------------------------------

   CUMULATIVE VOLUMES               L**3   RATES FOR THIS TIME STEP           L**3/T
   ------------------                      ------------------------

                                     IN                                         IN
                                     --                                         --
        PRECIPITATION =        2076621.55          PRECIPITATION =                  
           STREAMFLOW =                               STREAMFLOW =                  
     GW BOUNDARY FLOW =                         GW BOUNDARY FLOW =                  


                                    OUT                                        OUT
                                    ---                                        ---
   EVAPOTRANSPIRATION =        1590774.69     EVAPOTRANSPIRATION =          35187.80
           STREAMFLOW =         503208.14             STREAMFLOW =          12899.08
     GW BOUNDARY FLOW =          40873.14       GW BOUNDARY FLOW =            649.18

   INFLOWS - OUTFLOWS =         -58234.42     INFLOWS - OUTFLOWS =         -48736.06
             --------                                   --------

 TOTAL STORAGE CHANGE =         -52450.47         STORAGE CHANGE =         -48658.54
       --------------                             --------------
         LAND SURFACE =         139391.41           LAND SURFACE =         -82011.29
            SOIL ZONE =        1158031.31              SOIL ZONE =          52045.19
     UNSATURATED ZONE =       -1117204.42       UNSATURATED ZONE =         -13686.15
       SATURATED ZONE =        -232668.77         SATURATED ZONE =          -5006.29

 OVERALL BUDGET ERROR =          -5783.95           BUDGET ERROR =            -77.52


  PERCENT DISCREPANCY =             -0.27    PERCENT DISCREPANCY =             -0.16



1
 SUMMARY VOLUMETRIC BUDGET FOR GSFLOW 
 DATE: 12 09 1980              CUMULATIVE TIME STEP:      70
 MODFLOW STRESS PERIOD      2     CURRENT TIME STEP:      70     ITERATIONS:       7

 -----------------------------------------------------------------------------------

   CUMULATIVE VOLUMES               L**3   RATES FOR THIS TIME STEP           L**3/T
   ------------------                      ------------------------

                                     IN                                         IN
                                     --                                         --
        PRECIPITATION =        4284363.63          PRECIPITATION =                  
           STREAMFLOW =                               STREAMFLOW =                  
     GW BOUNDARY FLOW =                         GW BOUNDARY FLOW =                  


                                    OUT                                        OUT
                                    ---                                        ---
   EVAPOTRANSPIRATION =        1617336.65     EVAPOTRANSPIRATION =           4181.54
           STREAMFLOW =         588786.52             STREAMFLOW =          12702.47
     GW BOUNDARY FLOW =          45418.03       GW BOUNDARY FLOW =            649.37

   INFLOWS - OUTFLOWS =        2032822.43     INFLOWS - OUTFLOWS =         -17533.37
             --------                                   --------

 TOTAL STORAGE CHANGE =        2039213.69         STORAGE CHANGE =         -17432.37
       --------------                             --------------
         LAND SURFACE =        2318907.18           LAND SURFACE =          -4181.54
            SOIL ZONE =        1209368.19              SOIL ZONE =           6893.30
     UNSATURATED ZONE =       -1216781.26       UNSATURATED ZONE =         -14252.58
       SATURATED ZONE =        -272280.41         SATURATED ZONE =          -5891.55

 OVERALL BUDGET ERROR =          -6391.26           BUDGET ERROR =           -101.00


  PERCENT DISCREPANCY =             -0.15    PERCENT DISCREPANCY =             -0.58



1
 SUMMARY VOLUMETRIC BUDGET FOR GSFLOW 
 DATE: 12 16 1980              CUMULATIVE TIME STEP:      77
 MODFLOW STRESS PERIOD      2     CURRENT TIME STEP:      77     ITERATIONS:       7

 -----------------------------------------------------------------------------------

   CUMULATIVE VOLUMES               L**3   RATES FOR THIS TIME STEP           L**3/T
   ------------------                      ------------------------

                                     IN                                         IN
                                     --                                         --
        PRECIPITATION =        4284363.63          PRECIPITATION =                  
           STREAMFLOW =                               STREAMFLOW =                  
     GW BOUNDARY FLOW =                         GW BOUNDARY FLOW =                  


                                    OUT                                        OUT
                                    ---                                        ---
   EVAPOTRANSPIRATION =        1768796.06     EVAPOTRANSPIRATION =          35320.34
           STREAMFLOW =         696762.87             STREAMFLOW =          23071.54
     GW BOUNDARY FLOW =          49964.92       GW BOUNDARY FLOW =            650.02

   INFLOWS - OUTFLOWS =        1768839.78     INFLOWS - OUTFLOWS =         -59041.90
             --------                                   --------

 TOTAL STORAGE CHANGE =        1775859.98         STORAGE CHANGE =         -58954.14
       --------------                             --------------
         LAND SURFACE =        1969804.56           LAND SURFACE =        -143929.88
            SOIL ZONE =        1426255.52              SOIL ZONE =          99053.68
     UNSATURATED ZONE =       -1307718.16       UNSATURATED ZONE =          -9594.20
       SATURATED ZONE =        -312481.94         SATURATED ZONE =          -4483.74

 OVERALL BUDGET ERROR =          -7020.21           BUDGET ERROR =            -87.77


  PERCENT DISCREPANCY =             -0.16    PERCENT DISCREPANCY =             -0.15



1
 SUMMARY VOLUMETRIC BUDGET FOR GSFLOW 
 DATE: 12 23 1980              CUMULATIVE TIME STEP:      84
 MODFLOW STRESS PERIOD      2     CURRENT TIME STEP:      84     ITERATIONS:      10

 -----------------------------------------------------------------------------------

   CUMULATIVE VOLUMES               L**3   RATES FOR THIS TIME STEP           L**3/T
   ------------------                      ------------------------

                                     IN                                         IN
                                     --                                         --
        PRECIPITATION =        4516757.53          PRECIPITATION =                  
           STREAMFLOW =                               STREAMFLOW =                  
     GW BOUNDARY FLOW =                         GW BOUNDARY FLOW =                  


                                    OUT                                        OUT
                                    ---                                        ---
   EVAPOTRANSPIRATION =        1976599.54     EVAPOTRANSPIRATION =          34686.16
           STREAMFLOW =         927089.01             STREAMFLOW =          32075.67
     GW BOUNDARY FLOW =          54524.99       GW BOUNDARY FLOW =            652.03

   INFLOWS - OUTFLOWS =        1558544.00     INFLOWS - OUTFLOWS =         -67413.86
             --------                                   --------

 TOTAL STORAGE CHANGE =        1566055.53         STORAGE CHANGE =         -67351.55
       --------------                             --------------
         LAND SURFACE =        1249758.75           LAND SURFACE =         -62897.12
            SOIL ZONE =        2007846.38              SOIL ZONE =           5633.05
     UNSATURATED ZONE =       -1351971.65       UNSATURATED ZONE =          -5836.63
       SATURATED ZONE =        -339577.96         SATURATED ZONE =          -4250.85

 OVERALL BUDGET ERROR =          -7511.53           BUDGET ERROR =            -62.31


  PERCENT DISCREPANCY =             -0.17    PERCENT DISCREPANCY =             -0.09



1
 SUMMARY VOLUMETRIC BUDGET FOR GSFLOW 
 DATE: 12 30 1980              CUMULATIVE TIME STEP:      91
 MODFLOW STRESS PERIOD      2     CURRENT TIME STEP:      91     ITERATIONS:      11

 -----------------------------------------------------------------------------------

   CUMULATIVE VOLUMES               L**3   RATES FOR THIS TIME STEP           L**3/T
   ------------------                      ------------------------

                                     IN                                         IN
                                     --                                         --
        PRECIPITATION =        4516757.53          PRECIPITATION =                  
           STREAMFLOW =                               STREAMFLOW =                  
     GW BOUNDARY FLOW =                         GW BOUNDARY FLOW =                  


                                    OUT                                        OUT
                                    ---                                        ---
   EVAPOTRANSPIRATION =        2323070.66     EVAPOTRANSPIRATION =          45561.04
           STREAMFLOW =        1190617.76             STREAMFLOW =          27499.80
     GW BOUNDARY FLOW =          59093.13       GW BOUNDARY FLOW =            652.53

   INFLOWS - OUTFLOWS =         943975.98     INFLOWS - OUTFLOWS =         -73713.37
             --------                                   --------

 TOTAL STORAGE CHANGE =         951810.33         STORAGE CHANGE =         -73662.90
       --------------                             --------------
         LAND SURFACE =         439780.28           LAND SURFACE =         -36668.82
            SOIL ZONE =        2236269.91              SOIL ZONE =         -28821.89
     UNSATURATED ZONE =       -1360476.00       UNSATURATED ZONE =          -3790.73
       SATURATED ZONE =        -363763.86         SATURATED ZONE =          -4381.46

 OVERALL BUDGET ERROR =          -7834.36           BUDGET ERROR =            -50.47


  PERCENT DISCREPANCY =             -0.17    PERCENT DISCREPANCY =             -0.07



1
 SUMMARY VOLUMETRIC BUDGET FOR GSFLOW 
 DATE: 01 06 1981              CUMULATIVE TIME STEP:      98
 MODFLOW STRESS PERIOD      2     CURRENT TIME STEP:      98     ITERATIONS:       8

 -----------------------------------------------------------------------------------

   CUMULATIVE VOLUMES               L**3   RATES FOR THIS TIME STEP           L**3/T
   ------------------                      ------------------------

                                     IN                                         IN
                                     --                                         --
        PRECIPITATION =        5004445.43          PRECIPITATION =                  
           STREAMFLOW =                               STREAMFLOW =                  
     GW BOUNDARY FLOW =                         GW BOUNDARY FLOW =                  


                                    OUT                                        OUT
                                    ---                                        ---
   EVAPOTRANSPIRATION =        2542078.10     EVAPOTRANSPIRATION =          21275.40
           STREAMFLOW =        1334239.87             STREAMFLOW =          19323.47
     GW BOUNDARY FLOW =          63653.73       GW BOUNDARY FLOW =            651.00

   INFLOWS - OUTFLOWS =        1064473.73     INFLOWS - OUTFLOWS =         -41249.88
             --------                                   --------

 TOTAL STORAGE CHANGE =        1072676.43         STORAGE CHANGE =         -41183.97
       --------------                             --------------
         LAND SURFACE =         704151.62           LAND SURFACE =         -29065.37
            SOIL ZONE =        2200315.27              SOIL ZONE =           5049.04
     UNSATURATED ZONE =       -1428544.81       UNSATURATED ZONE =         -11145.49
       SATURATED ZONE =        -403245.65         SATURATED ZONE =          -6022.15

 OVERALL BUDGET ERROR =          -8202.70           BUDGET ERROR =            -65.90


  PERCENT DISCREPANCY =             -0.16    PERCENT DISCREPANCY =             -0.16



1
 SUMMARY VOLUMETRIC BUDGET FOR GSFLOW 
 DATE: 01 13 1981              CUMULATIVE TIME STEP:     105
 MODFLOW STRESS PERIOD      2     CURRENT TIME STEP:     105     ITERATIONS:       7

 -----------------------------------------------------------------------------------

   CUMULATIVE VOLUMES               L**3   RATES FOR THIS TIME STEP           L**3/T
   ------------------                      ------------------------

                                     IN                                         IN
                                     --                                         --
        PRECIPITATION =        5004445.43          PRECIPITATION =                  
           STREAMFLOW =                               STREAMFLOW =                  
     GW BOUNDARY FLOW =                         GW BOUNDARY FLOW =                  


                                    OUT                                        OUT
                                    ---                                        ---
   EVAPOTRANSPIRATION =        2746230.37     EVAPOTRANSPIRATION =          43064.61
           STREAMFLOW =        1484098.11             STREAMFLOW =          20695.81
     GW BOUNDARY FLOW =          68210.24       GW BOUNDARY FLOW =            650.84

   INFLOWS - OUTFLOWS =         705906.71     INFLOWS - OUTFLOWS =         -64411.27
             --------                                   --------

 TOTAL STORAGE CHANGE =         714577.27         STORAGE CHANGE =         -64329.48
       --------------                             --------------
         LAND SURFACE =         444072.82           LAND SURFACE =         -42032.56
            SOIL ZONE =        2203105.57              SOIL ZONE =          -9532.99
     UNSATURATED ZONE =       -1486536.66       UNSATURATED ZONE =          -6413.36
       SATURATED ZONE =        -446064.45         SATURATED ZONE =          -6350.58

 OVERALL BUDGET ERROR =          -8670.56           BUDGET ERROR =            -81.79


  PERCENT DISCREPANCY =             -0.17    PERCENT DISCREPANCY =             -0.13



1
 SUMMARY VOLUMETRIC BUDGET FOR GSFLOW 
 DATE: 01 20 1981              CUMULATIVE TIME STEP:     112
 MODFLOW STRESS PERIOD      2     CURRENT TIME STEP:     112     ITERATIONS:      12

 -----------------------------------------------------------------------------------

   CUMULATIVE VOLUMES               L**3   RATES FOR THIS TIME STEP           L**3/T
   ------------------                      ------------------------

                                     IN                                         IN
                                     --                                         --
        PRECIPITATION =        5170466.84          PRECIPITATION =          41505.35
           STREAMFLOW =                               STREAMFLOW =                  
     GW BOUNDARY FLOW =                         GW BOUNDARY FLOW =                  


                                    OUT                                        OUT
                                    ---                                        ---
   EVAPOTRANSPIRATION =        3041703.95     EVAPOTRANSPIRATION =          53835.48
           STREAMFLOW =        1616263.88             STREAMFLOW =          18046.17
     GW BOUNDARY FLOW =          72764.10       GW BOUNDARY FLOW =            650.41

   INFLOWS - OUTFLOWS =         439734.91     INFLOWS - OUTFLOWS =         -31026.71
             --------                                   --------

 TOTAL STORAGE CHANGE =         448902.70         STORAGE CHANGE =         -30979.50
       --------------                             --------------
         LAND SURFACE =         314149.72           LAND SURFACE =           8327.11
            SOIL ZONE =        2140600.43              SOIL ZONE =         -31629.87
     UNSATURATED ZONE =       -1513568.83       UNSATURATED ZONE =          -1441.85
       SATURATED ZONE =        -492278.61         SATURATED ZONE =          -6234.90

 OVERALL BUDGET ERROR =          -9167.79           BUDGET ERROR =            -47.21


  PERCENT DISCREPANCY =             -0.18    PERCENT DISCREPANCY =             -0.07



1
 SUMMARY VOLUMETRIC BUDGET FOR GSFLOW 
 DATE: 01 27 1981              CUMULATIVE TIME STEP:     119
 MODFLOW STRESS PERIOD      2     CURRENT TIME STEP:     119     ITERATIONS:       8

 -----------------------------------------------------------------------------------

   CUMULATIVE VOLUMES               L**3   RATES FOR THIS TIME STEP           L**3/T
   ------------------                      ------------------------

                                     IN                                         IN
                                     --                                         --
        PRECIPITATION =        8646540.08          PRECIPITATION =        2936503.64
           STREAMFLOW =                               STREAMFLOW =                  
     GW BOUNDARY FLOW =                         GW BOUNDARY FLOW =                  


                                    OUT                                        OUT
                                    ---                                        ---
   EVAPOTRANSPIRATION =        3266134.37     EVAPOTRANSPIRATION =          12594.32
           STREAMFLOW =        1743367.89             STREAMFLOW =          17102.77
     GW BOUNDARY FLOW =          77316.30       GW BOUNDARY FLOW =            650.19

   INFLOWS - OUTFLOWS =        3559721.52     INFLOWS - OUTFLOWS =        2906156.37
             --------                                   --------

 TOTAL STORAGE CHANGE =        3569277.51         STORAGE CHANGE =        2906218.87
       --------------                             --------------
         LAND SURFACE =        3477699.45           LAND SURFACE =        2923909.34
            SOIL ZONE =        2163342.75              SOIL ZONE =          -3192.94
     UNSATURATED ZONE =       -1530739.39       UNSATURATED ZONE =          -7147.12
       SATURATED ZONE =        -541025.29         SATURATED ZONE =          -7350.41

 OVERALL BUDGET ERROR =          -9555.99           BUDGET ERROR =            -62.50


  PERCENT DISCREPANCY =             -0.11    PERCENT DISCREPANCY =             -0.00



1
 SUMMARY VOLUMETRIC BUDGET FOR GSFLOW 
 DATE: 02 03 1981              CUMULATIVE TIME STEP:     126
 MODFLOW STRESS PERIOD      2     CURRENT TIME STEP:     126     ITERATIONS:       7

 -----------------------------------------------------------------------------------

   CUMULATIVE VOLUMES               L**3   RATES FOR THIS TIME STEP           L**3/T
   ------------------                      ------------------------

                                     IN                                         IN
                                     --                                         --
        PRECIPITATION =        1.1739D+07          PRECIPITATION =                  
           STREAMFLOW =                               STREAMFLOW =                  
     GW BOUNDARY FLOW =                         GW BOUNDARY FLOW =                  


                                    OUT                                        OUT
                                    ---                                        ---
   EVAPOTRANSPIRATION =        3303478.00     EVAPOTRANSPIRATION =           8129.77
           STREAMFLOW =        1863959.32             STREAMFLOW =          17437.99
     GW BOUNDARY FLOW =          81867.24       GW BOUNDARY FLOW =            650.14

   INFLOWS - OUTFLOWS =        6489384.23     INFLOWS - OUTFLOWS =         -26217.89
             --------                                   --------

 TOTAL STORAGE CHANGE =        6499417.40         STORAGE CHANGE =         -26132.29
       --------------                             --------------
         LAND SURFACE =        6532504.52           LAND SURFACE =          -8129.77
            SOIL ZONE =        2165290.59              SOIL ZONE =           1130.62
     UNSATURATED ZONE =       -1603564.81       UNSATURATED ZONE =         -11109.10
       SATURATED ZONE =        -594812.91         SATURATED ZONE =          -8024.04

 OVERALL BUDGET ERROR =         -10033.16           BUDGET ERROR =            -85.60


  PERCENT DISCREPANCY =             -0.09    PERCENT DISCREPANCY =             -0.33



1
 SUMMARY VOLUMETRIC BUDGET FOR GSFLOW 
 DATE: 02 10 1981              CUMULATIVE TIME STEP:     133
 MODFLOW STRESS PERIOD      2     CURRENT TIME STEP:     133     ITERATIONS:       8

 -----------------------------------------------------------------------------------

   CUMULATIVE VOLUMES               L**3   RATES FOR THIS TIME STEP           L**3/T
   ------------------                      ------------------------

                                     IN                                         IN
                                     --                                         --
        PRECIPITATION =        1.1838D+07          PRECIPITATION =                  
           STREAMFLOW =                               STREAMFLOW =                  
     GW BOUNDARY FLOW =                         GW BOUNDARY FLOW =                  


                                    OUT                                        OUT
                                    ---                                        ---
   EVAPOTRANSPIRATION =        3437282.67     EVAPOTRANSPIRATION =          34655.69
           STREAMFLOW =        1987529.67             STREAMFLOW =          17761.49
     GW BOUNDARY FLOW =          86418.42       GW BOUNDARY FLOW =            650.18

   INFLOWS - OUTFLOWS =        6327022.53     INFLOWS - OUTFLOWS =         -53067.36
             --------                                   --------

 TOTAL STORAGE CHANGE =        6337600.35         STORAGE CHANGE =         -53007.71
       --------------                             --------------
         LAND SURFACE =        6498264.35           LAND SURFACE =         -34655.69
            SOIL ZONE =        2171901.72              SOIL ZONE =            790.61
     UNSATURATED ZONE =       -1679359.54       UNSATURATED ZONE =         -10569.89
       SATURATED ZONE =        -653206.18         SATURATED ZONE =          -8572.75

 OVERALL BUDGET ERROR =         -10577.82           BUDGET ERROR =            -59.65


  PERCENT DISCREPANCY =             -0.09    PERCENT DISCREPANCY =             -0.11



1
 SUMMARY VOLUMETRIC BUDGET FOR GSFLOW 
 DATE: 02 17 1981              CUMULATIVE TIME STEP:     140
 MODFLOW STRESS PERIOD      2     CURRENT TIME STEP:     140     ITERATIONS:      14

 -----------------------------------------------------------------------------------

   CUMULATIVE VOLUMES               L**3   RATES FOR THIS TIME STEP           L**3/T
   ------------------                      ------------------------

                                     IN                                         IN
                                     --                                         --
        PRECIPITATION =        1.2765D+07          PRECIPITATION =          68929.28
           STREAMFLOW =                               STREAMFLOW =                  
     GW BOUNDARY FLOW =                         GW BOUNDARY FLOW =                  


                                    OUT                                        OUT
                                    ---                                        ---
   EVAPOTRANSPIRATION =        3781399.03     EVAPOTRANSPIRATION =          68547.05
           STREAMFLOW =        2514264.58             STREAMFLOW =         126073.48
     GW BOUNDARY FLOW =          90991.18       GW BOUNDARY FLOW =            656.75

   INFLOWS - OUTFLOWS =        6378314.32     INFLOWS - OUTFLOWS =        -126348.00
             --------                                   --------

 TOTAL STORAGE CHANGE =        6389322.64         STORAGE CHANGE =        -126319.69
       --------------                             --------------
         LAND SURFACE =        5531299.83           LAND SURFACE =        -291244.27
            SOIL ZONE =        2965915.47              SOIL ZONE =          82204.66
     UNSATURATED ZONE =       -1436109.19       UNSATURATED ZONE =          80590.56
       SATURATED ZONE =        -671783.47         SATURATED ZONE =           2129.37

 OVERALL BUDGET ERROR =         -11008.32           BUDGET ERROR =            -28.31


  PERCENT DISCREPANCY =             -0.09    PERCENT DISCREPANCY =             -0.01



1
 SUMMARY VOLUMETRIC BUDGET FOR GSFLOW 
 DATE: 02 24 1981              CUMULATIVE TIME STEP:     147
 MODFLOW STRESS PERIOD      2     CURRENT TIME STEP:     147     ITERATIONS:      14

 -----------------------------------------------------------------------------------

   CUMULATIVE VOLUMES               L**3   RATES FOR THIS TIME STEP           L**3/T
   ------------------                      ------------------------

                                     IN                                         IN
                                     --                                         --
        PRECIPITATION =        1.3179D+07          PRECIPITATION =         344646.37
           STREAMFLOW =                               STREAMFLOW =                  
     GW BOUNDARY FLOW =                         GW BOUNDARY FLOW =                  


                                    OUT                                        OUT
                                    ---                                        ---
   EVAPOTRANSPIRATION =        4132188.47     EVAPOTRANSPIRATION =          19833.49
           STREAMFLOW =        3115016.86             STREAMFLOW =          54682.67
     GW BOUNDARY FLOW =          95587.14       GW BOUNDARY FLOW =            655.62

   INFLOWS - OUTFLOWS =        5835752.29     INFLOWS - OUTFLOWS =         269474.58
             --------                                   --------

 TOTAL STORAGE CHANGE =        5846871.15         STORAGE CHANGE =         269494.65
       --------------                             --------------
         LAND SURFACE =        4822849.21           LAND SURFACE =         299393.23
            SOIL ZONE =        2720053.10              SOIL ZONE =         -64614.31
     UNSATURATED ZONE =       -1049721.15       UNSATURATED ZONE =          31829.74
       SATURATED ZONE =        -646310.01         SATURATED ZONE =           2886.00

 OVERALL BUDGET ERROR =         -11118.86           BUDGET ERROR =            -20.08


  PERCENT DISCREPANCY =             -0.08    PERCENT DISCREPANCY =             -0.01



1
 SUMMARY VOLUMETRIC BUDGET FOR GSFLOW 
 DATE: 03 03 1981              CUMULATIVE TIME STEP:     154
 MODFLOW STRESS PERIOD      2     CURRENT TIME STEP:     154     ITERATIONS:      11

 -----------------------------------------------------------------------------------

   CUMULATIVE VOLUMES               L**3   RATES FOR THIS TIME STEP           L**3/T
   ------------------                      ------------------------

                                     IN                                         IN
                                     --                                         --
        PRECIPITATION =        1.3447D+07          PRECIPITATION =                  
           STREAMFLOW =                               STREAMFLOW =                  
     GW BOUNDARY FLOW =                         GW BOUNDARY FLOW =                  


                                    OUT                                        OUT
                                    ---                                        ---
   EVAPOTRANSPIRATION =        4294823.52     EVAPOTRANSPIRATION =          44522.60
           STREAMFLOW =        3344753.34             STREAMFLOW =          27952.95
     GW BOUNDARY FLOW =         100161.41       GW BOUNDARY FLOW =            652.37

   INFLOWS - OUTFLOWS =        5706864.78     INFLOWS - OUTFLOWS =         -73127.91
             --------                                   --------

 TOTAL STORAGE CHANGE =        5718089.85         STORAGE CHANGE =         -73114.39
       --------------                             --------------
         LAND SURFACE =        4905587.46           LAND SURFACE =         -65328.28
            SOIL ZONE =        2491871.94              SOIL ZONE =           1781.51
     UNSATURATED ZONE =       -1031828.02       UNSATURATED ZONE =          -7853.94
       SATURATED ZONE =        -647541.51         SATURATED ZONE =          -1713.68

 OVERALL BUDGET ERROR =         -11225.07           BUDGET ERROR =            -13.52


  PERCENT DISCREPANCY =             -0.08    PERCENT DISCREPANCY =             -0.02



1
 SUMMARY VOLUMETRIC BUDGET FOR GSFLOW 
 DATE: 03 10 1981              CUMULATIVE TIME STEP:     161
 MODFLOW STRESS PERIOD      2     CURRENT TIME STEP:     161     ITERATIONS:      11

 -----------------------------------------------------------------------------------

   CUMULATIVE VOLUMES               L**3   RATES FOR THIS TIME STEP           L**3/T
   ------------------                      ------------------------

                                     IN                                         IN
                                     --                                         --
        PRECIPITATION =        1.3493D+07          PRECIPITATION =                  
           STREAMFLOW =                               STREAMFLOW =                  
     GW BOUNDARY FLOW =                         GW BOUNDARY FLOW =                  


                                    OUT                                        OUT
                                    ---                                        ---
   EVAPOTRANSPIRATION =        4612121.52     EVAPOTRANSPIRATION =          63410.55
           STREAMFLOW =        3588560.97             STREAMFLOW =          45973.07
     GW BOUNDARY FLOW =         104728.28       GW BOUNDARY FLOW =            653.13

   INFLOWS - OUTFLOWS =        5187530.39     INFLOWS - OUTFLOWS =        -110036.75
             --------                                   --------

 TOTAL STORAGE CHANGE =        5198886.53         STORAGE CHANGE =        -110018.56
       --------------                             --------------
         LAND SURFACE =        4224544.33           LAND SURFACE =        -168143.81
            SOIL ZONE =        2623440.57              SOIL ZONE =          34315.29
     UNSATURATED ZONE =        -992292.79       UNSATURATED ZONE =          23762.88
       SATURATED ZONE =        -656805.59         SATURATED ZONE =             47.07

 OVERALL BUDGET ERROR =         -11356.14           BUDGET ERROR =            -18.19


  PERCENT DISCREPANCY =             -0.08    PERCENT DISCREPANCY =             -0.02



1
 SUMMARY VOLUMETRIC BUDGET FOR GSFLOW 
 DATE: 03 17 1981              CUMULATIVE TIME STEP:     168
 MODFLOW STRESS PERIOD      2     CURRENT TIME STEP:     168     ITERATIONS:       9

 -----------------------------------------------------------------------------------

   CUMULATIVE VOLUMES               L**3   RATES FOR THIS TIME STEP           L**3/T
   ------------------                      ------------------------

                                     IN                                         IN
                                     --                                         --
        PRECIPITATION =        1.3744D+07          PRECIPITATION =                  
           STREAMFLOW =                               STREAMFLOW =                  
     GW BOUNDARY FLOW =                         GW BOUNDARY FLOW =                  


                                    OUT                                        OUT
                                    ---                                        ---
   EVAPOTRANSPIRATION =        4968741.62     EVAPOTRANSPIRATION =          39557.80
           STREAMFLOW =        3827409.56             STREAMFLOW =          24676.75
     GW BOUNDARY FLOW =         109297.11       GW BOUNDARY FLOW =            652.09

   INFLOWS - OUTFLOWS =        4839042.61     INFLOWS - OUTFLOWS =         -64886.64
             --------                                   --------

 TOTAL STORAGE CHANGE =        4850478.69         STORAGE CHANGE =         -64874.09
       --------------                             --------------
         LAND SURFACE =        4040109.71           LAND SURFACE =         -39206.69
            SOIL ZONE =        2439548.88              SOIL ZONE =          -6249.19
     UNSATURATED ZONE =        -960730.05       UNSATURATED ZONE =         -15701.44
       SATURATED ZONE =        -668449.86         SATURATED ZONE =          -3716.77

 OVERALL BUDGET ERROR =         -11436.08           BUDGET ERROR =            -12.55


  PERCENT DISCREPANCY =             -0.08    PERCENT DISCREPANCY =             -0.02



1
 SUMMARY VOLUMETRIC BUDGET FOR GSFLOW 
 DATE: 03 24 1981              CUMULATIVE TIME STEP:     175
 MODFLOW STRESS PERIOD      2     CURRENT TIME STEP:     175     ITERATIONS:       9

 -----------------------------------------------------------------------------------

   CUMULATIVE VOLUMES               L**3   RATES FOR THIS TIME STEP           L**3/T
   ------------------                      ------------------------

                                     IN                                         IN
                                     --                                         --
        PRECIPITATION =        1.4367D+07          PRECIPITATION =                  
           STREAMFLOW =                               STREAMFLOW =                  
     GW BOUNDARY FLOW =                         GW BOUNDARY FLOW =                  


                                    OUT                                        OUT
                                    ---                                        ---
   EVAPOTRANSPIRATION =        5321799.08     EVAPOTRANSPIRATION =          85696.12
           STREAMFLOW =        4002303.21             STREAMFLOW =          27904.50
     GW BOUNDARY FLOW =         113857.98       GW BOUNDARY FLOW =            651.48

   INFLOWS - OUTFLOWS =        4928785.26     INFLOWS - OUTFLOWS =        -114252.10
             --------                                   --------

 TOTAL STORAGE CHANGE =        4940414.25         STORAGE CHANGE =        -114226.58
       --------------                             --------------
         LAND SURFACE =        4337113.67           LAND SURFACE =         -79271.42
            SOIL ZONE =        2343344.15              SOIL ZONE =         -26574.17
     UNSATURATED ZONE =       -1040829.85       UNSATURATED ZONE =          -3925.26
       SATURATED ZONE =        -699213.73         SATURATED ZONE =          -4455.74

 OVERALL BUDGET ERROR =         -11628.99           BUDGET ERROR =            -25.52


  PERCENT DISCREPANCY =             -0.08    PERCENT DISCREPANCY =             -0.02



1
 SUMMARY VOLUMETRIC BUDGET FOR GSFLOW 
 DATE: 03 31 1981              CUMULATIVE TIME STEP:     182
 MODFLOW STRESS PERIOD      2     CURRENT TIME STEP:     182     ITERATIONS:      11

 -----------------------------------------------------------------------------------

   CUMULATIVE VOLUMES               L**3   RATES FOR THIS TIME STEP           L**3/T
   ------------------                      ------------------------

                                     IN                                         IN
                                     --                                         --
        PRECIPITATION =        1.5777D+07          PRECIPITATION =                  
           STREAMFLOW =                               STREAMFLOW =                  
     GW BOUNDARY FLOW =                         GW BOUNDARY FLOW =                  


                                    OUT                                        OUT
                                    ---                                        ---
   EVAPOTRANSPIRATION =        5747309.03     EVAPOTRANSPIRATION =          55419.53
           STREAMFLOW =        4488628.89             STREAMFLOW =          36340.08
     GW BOUNDARY FLOW =         118439.01       GW BOUNDARY FLOW =            653.50

   INFLOWS - OUTFLOWS =        5422371.07     INFLOWS - OUTFLOWS =         -92413.12
             --------                                   --------

 TOTAL STORAGE CHANGE =        5434099.42         STORAGE CHANGE =         -92408.08
       --------------                             --------------
         LAND SURFACE =        4443556.20           LAND SURFACE =         -57717.89
            SOIL ZONE =        2520213.74              SOIL ZONE =         -36746.45
     UNSATURATED ZONE =        -836342.96       UNSATURATED ZONE =           2989.61
       SATURATED ZONE =        -693327.55         SATURATED ZONE =           -933.35

 OVERALL BUDGET ERROR =         -11728.35           BUDGET ERROR =             -5.03


  PERCENT DISCREPANCY =             -0.07    PERCENT DISCREPANCY =             -0.01



1
 SUMMARY VOLUMETRIC BUDGET FOR GSFLOW 
 DATE: 04 07 1981              CUMULATIVE TIME STEP:     189
 MODFLOW STRESS PERIOD      2     CURRENT TIME STEP:     189     ITERATIONS:      10

 -----------------------------------------------------------------------------------

   CUMULATIVE VOLUMES               L**3   RATES FOR THIS TIME STEP           L**3/T
   ------------------                      ------------------------

                                     IN                                         IN
                                     --                                         --
        PRECIPITATION =        1.6121D+07          PRECIPITATION =                  
           STREAMFLOW =                               STREAMFLOW =                  
     GW BOUNDARY FLOW =                         GW BOUNDARY FLOW =                  


                                    OUT                                        OUT
                                    ---                                        ---
   EVAPOTRANSPIRATION =        6392911.76     EVAPOTRANSPIRATION =         106275.37
           STREAMFLOW =        4815509.02             STREAMFLOW =          45105.78
     GW BOUNDARY FLOW =         123015.18       GW BOUNDARY FLOW =            653.90

   INFLOWS - OUTFLOWS =        4790031.67     INFLOWS - OUTFLOWS =        -152035.05
             --------                                   --------

 TOTAL STORAGE CHANGE =        4801793.88         STORAGE CHANGE =        -152043.75
       --------------                             --------------
         LAND SURFACE =        3781661.77           LAND SURFACE =        -144703.25
            SOIL ZONE =        2467615.91              SOIL ZONE =         -19369.05
     UNSATURATED ZONE =        -758888.36       UNSATURATED ZONE =          11310.32
       SATURATED ZONE =        -688595.45         SATURATED ZONE =            718.22

 OVERALL BUDGET ERROR =         -11762.21           BUDGET ERROR =              8.70


  PERCENT DISCREPANCY =             -0.07    PERCENT DISCREPANCY =              0.01



1
 SUMMARY VOLUMETRIC BUDGET FOR GSFLOW 
 DATE: 04 14 1981              CUMULATIVE TIME STEP:     196
 MODFLOW STRESS PERIOD      2     CURRENT TIME STEP:     196     ITERATIONS:      13

 -----------------------------------------------------------------------------------

   CUMULATIVE VOLUMES               L**3   RATES FOR THIS TIME STEP           L**3/T
   ------------------                      ------------------------

                                     IN                                         IN
                                     --                                         --
        PRECIPITATION =        1.6121D+07          PRECIPITATION =                  
           STREAMFLOW =                               STREAMFLOW =                  
     GW BOUNDARY FLOW =                         GW BOUNDARY FLOW =                  


                                    OUT                                        OUT
                                    ---                                        ---
   EVAPOTRANSPIRATION =        7319947.14     EVAPOTRANSPIRATION =         190847.38
           STREAMFLOW =        5140662.05             STREAMFLOW =          53629.91
     GW BOUNDARY FLOW =         127590.45       GW BOUNDARY FLOW =            653.47

   INFLOWS - OUTFLOWS =        3533267.97     INFLOWS - OUTFLOWS =        -245130.77
             --------                                   --------

 TOTAL STORAGE CHANGE =        3544969.20         STORAGE CHANGE =        -245139.58
       --------------                             --------------
         LAND SURFACE =        2531238.32           LAND SURFACE =        -247996.93
            SOIL ZONE =        2365312.07              SOIL ZONE =         -17227.40
     UNSATURATED ZONE =        -671557.09       UNSATURATED ZONE =          17887.27
       SATURATED ZONE =        -680024.10         SATURATED ZONE =           2197.48

 OVERALL BUDGET ERROR =         -11701.23           BUDGET ERROR =              8.81


  PERCENT DISCREPANCY =             -0.07    PERCENT DISCREPANCY =              0.00



1
 SUMMARY VOLUMETRIC BUDGET FOR GSFLOW 
 DATE: 04 21 1981              CUMULATIVE TIME STEP:     203
 MODFLOW STRESS PERIOD      2     CURRENT TIME STEP:     203     ITERATIONS:      13

 -----------------------------------------------------------------------------------

   CUMULATIVE VOLUMES               L**3   RATES FOR THIS TIME STEP           L**3/T
   ------------------                      ------------------------

                                     IN                                         IN
                                     --                                         --
        PRECIPITATION =        1.6310D+07          PRECIPITATION =                  
           STREAMFLOW =                               STREAMFLOW =                  
     GW BOUNDARY FLOW =                         GW BOUNDARY FLOW =                  


                                    OUT                                        OUT
                                    ---                                        ---
   EVAPOTRANSPIRATION =        8386319.24     EVAPOTRANSPIRATION =         152903.36
           STREAMFLOW =        5465698.28             STREAMFLOW =          42560.68
     GW BOUNDARY FLOW =         132160.18       GW BOUNDARY FLOW =            652.35

   INFLOWS - OUTFLOWS =        2326064.95     INFLOWS - OUTFLOWS =        -196116.39
             --------                                   --------

 TOTAL STORAGE CHANGE =        2337725.07         STORAGE CHANGE =        -196123.91
       --------------                             --------------
         LAND SURFACE =        1376755.82           LAND SURFACE =        -115550.25
            SOIL ZONE =        2189970.77              SOIL ZONE =         -96742.84
     UNSATURATED ZONE =        -566262.16       UNSATURATED ZONE =          13697.81
       SATURATED ZONE =        -662739.35         SATURATED ZONE =           2471.37

 OVERALL BUDGET ERROR =         -11660.12           BUDGET ERROR =              7.52


  PERCENT DISCREPANCY =             -0.07    PERCENT DISCREPANCY =              0.00



1
 SUMMARY VOLUMETRIC BUDGET FOR GSFLOW 
 DATE: 04 28 1981              CUMULATIVE TIME STEP:     210
 MODFLOW STRESS PERIOD      2     CURRENT TIME STEP:     210     ITERATIONS:      14

 -----------------------------------------------------------------------------------

   CUMULATIVE VOLUMES               L**3   RATES FOR THIS TIME STEP           L**3/T
   ------------------                      ------------------------

                                     IN                                         IN
                                     --                                         --
        PRECIPITATION =        1.6515D+07          PRECIPITATION =                  
           STREAMFLOW =                               STREAMFLOW =                  
     GW BOUNDARY FLOW =                         GW BOUNDARY FLOW =                  


                                    OUT                                        OUT
                                    ---                                        ---
   EVAPOTRANSPIRATION =        9624032.91     EVAPOTRANSPIRATION =         200607.98
           STREAMFLOW =        5656742.59             STREAMFLOW =          20938.75
     GW BOUNDARY FLOW =         136717.57       GW BOUNDARY FLOW =            650.14

   INFLOWS - OUTFLOWS =        1097939.82     INFLOWS - OUTFLOWS =        -222196.87
             --------                                   --------

 TOTAL STORAGE CHANGE =        1109603.42         STORAGE CHANGE =        -222190.37
       --------------                             --------------
         LAND SURFACE =         689501.81           LAND SURFACE =         -76793.21
            SOIL ZONE =        1662798.79              SOIL ZONE =        -137339.32
     UNSATURATED ZONE =        -580093.53       UNSATURATED ZONE =          -7288.93
       SATURATED ZONE =        -662603.65         SATURATED ZONE =           -768.90

 OVERALL BUDGET ERROR =         -11663.60           BUDGET ERROR =             -6.51


  PERCENT DISCREPANCY =             -0.07    PERCENT DISCREPANCY =             -0.00



1
 SUMMARY VOLUMETRIC BUDGET FOR GSFLOW 
 DATE: 05 05 1981              CUMULATIVE TIME STEP:     217
 MODFLOW STRESS PERIOD      2     CURRENT TIME STEP:     217     ITERATIONS:      14

 -----------------------------------------------------------------------------------

   CUMULATIVE VOLUMES               L**3   RATES FOR THIS TIME STEP           L**3/T
   ------------------                      ------------------------

                                     IN                                         IN
                                     --                                         --
        PRECIPITATION =        1.6515D+07          PRECIPITATION =                  
           STREAMFLOW =                               STREAMFLOW =                  
     GW BOUNDARY FLOW =                         GW BOUNDARY FLOW =                  


                                    OUT                                        OUT
                                    ---                                        ---
   EVAPOTRANSPIRATION =        1.0476D+07     EVAPOTRANSPIRATION =          52284.85
           STREAMFLOW =        5749576.06             STREAMFLOW =           9955.14
     GW BOUNDARY FLOW =         141262.07       GW BOUNDARY FLOW =            648.62

   INFLOWS - OUTFLOWS =         148672.92     INFLOWS - OUTFLOWS =         -62888.61
             --------                                   --------

 TOTAL STORAGE CHANGE =         160478.62         STORAGE CHANGE =         -62862.95
       --------------                             --------------
         LAND SURFACE =         366553.28           LAND SURFACE =         -17169.35
            SOIL ZONE =        1151245.87              SOIL ZONE =         -26602.87
     UNSATURATED ZONE =        -678300.15       UNSATURATED ZONE =         -16015.29
       SATURATED ZONE =        -679020.37         SATURATED ZONE =          -3075.44

 OVERALL BUDGET ERROR =         -11805.70           BUDGET ERROR =            -25.66


  PERCENT DISCREPANCY =             -0.07    PERCENT DISCREPANCY =             -0.04



1
 SUMMARY VOLUMETRIC BUDGET FOR GSFLOW 
 DATE: 05 12 1981              CUMULATIVE TIME STEP:     224
 MODFLOW STRESS PERIOD      2     CURRENT TIME STEP:     224     ITERATIONS:      13

 -----------------------------------------------------------------------------------

   CUMULATIVE VOLUMES               L**3   RATES FOR THIS TIME STEP           L**3/T
   ------------------                      ------------------------

                                     IN                                         IN
                                     --                                         --
        PRECIPITATION =        1.6515D+07          PRECIPITATION =                  
           STREAMFLOW =                               STREAMFLOW =                  
     GW BOUNDARY FLOW =                         GW BOUNDARY FLOW =                  


                                    OUT                                        OUT
                                    ---                                        ---
   EVAPOTRANSPIRATION =        1.0948D+07     EVAPOTRANSPIRATION =          83440.39
           STREAMFLOW =        5817334.84             STREAMFLOW =          10303.83
     GW BOUNDARY FLOW =         145799.99       GW BOUNDARY FLOW =            648.17

   INFLOWS - OUTFLOWS =        -395890.67     INFLOWS - OUTFLOWS =         -94392.39
             --------                                   --------

 TOTAL STORAGE CHANGE =        -383898.28         STORAGE CHANGE =         -94363.97
       --------------                             --------------
         LAND SURFACE =         219802.40           LAND SURFACE =         -26008.33
            SOIL ZONE =         887777.05              SOIL ZONE =         -49911.19
     UNSATURATED ZONE =        -780737.97       UNSATURATED ZONE =         -12857.47
       SATURATED ZONE =        -710739.76         SATURATED ZONE =          -5586.98

 OVERALL BUDGET ERROR =         -11992.39           BUDGET ERROR =            -28.43


  PERCENT DISCREPANCY =             -0.07    PERCENT DISCREPANCY =             -0.03



1
 SUMMARY VOLUMETRIC BUDGET FOR GSFLOW 
 DATE: 05 19 1981              CUMULATIVE TIME STEP:     231
 MODFLOW STRESS PERIOD      2     CURRENT TIME STEP:     231     ITERATIONS:      13

 -----------------------------------------------------------------------------------

   CUMULATIVE VOLUMES               L**3   RATES FOR THIS TIME STEP           L**3/T
   ------------------                      ------------------------

                                     IN                                         IN
                                     --                                         --
        PRECIPITATION =        1.7837D+07          PRECIPITATION =         169045.42
           STREAMFLOW =                               STREAMFLOW =                  
     GW BOUNDARY FLOW =                         GW BOUNDARY FLOW =                  


                                    OUT                                        OUT
                                    ---                                        ---
   EVAPOTRANSPIRATION =        1.1329D+07     EVAPOTRANSPIRATION =          31098.89
           STREAMFLOW =        5938349.69             STREAMFLOW =          22485.98
     GW BOUNDARY FLOW =         150339.12       GW BOUNDARY FLOW =            649.32

   INFLOWS - OUTFLOWS =         419584.27     INFLOWS - OUTFLOWS =         114811.23
             --------                                   --------

 TOTAL STORAGE CHANGE =         431726.83         STORAGE CHANGE =         114832.46
       --------------                             --------------
         LAND SURFACE =         192797.30           LAND SURFACE =          20924.34
            SOIL ZONE =        1835048.25              SOIL ZONE =         101394.50
     UNSATURATED ZONE =        -843998.49       UNSATURATED ZONE =          -1295.00
       SATURATED ZONE =        -752120.23         SATURATED ZONE =          -6191.38

 OVERALL BUDGET ERROR =         -12142.56           BUDGET ERROR =            -21.22


  PERCENT DISCREPANCY =             -0.07    PERCENT DISCREPANCY =             -0.01



1
 SUMMARY VOLUMETRIC BUDGET FOR GSFLOW 
 DATE: 05 26 1981              CUMULATIVE TIME STEP:     238
 MODFLOW STRESS PERIOD      2     CURRENT TIME STEP:     238     ITERATIONS:      14

 -----------------------------------------------------------------------------------

   CUMULATIVE VOLUMES               L**3   RATES FOR THIS TIME STEP           L**3/T
   ------------------                      ------------------------

                                     IN                                         IN
                                     --                                         --
        PRECIPITATION =        1.8252D+07          PRECIPITATION =         284303.67
           STREAMFLOW =                               STREAMFLOW =                  
     GW BOUNDARY FLOW =                         GW BOUNDARY FLOW =                  


                                    OUT                                        OUT
                                    ---                                        ---
   EVAPOTRANSPIRATION =        1.2175D+07     EVAPOTRANSPIRATION =         134158.24
           STREAMFLOW =        6042622.70             STREAMFLOW =          18598.25
     GW BOUNDARY FLOW =         154879.51       GW BOUNDARY FLOW =            648.46

   INFLOWS - OUTFLOWS =        -120067.39     INFLOWS - OUTFLOWS =         130898.74
             --------                                   --------

 TOTAL STORAGE CHANGE =        -107728.86         STORAGE CHANGE =         130921.88
       --------------                             --------------
         LAND SURFACE =         117351.16           LAND SURFACE =          -7156.34
            SOIL ZONE =        1480858.62              SOIL ZONE =         155552.39
     UNSATURATED ZONE =        -905444.19       UNSATURATED ZONE =         -10793.92
       SATURATED ZONE =        -800494.46         SATURATED ZONE =          -6680.24

 OVERALL BUDGET ERROR =         -12338.53           BUDGET ERROR =            -23.15


  PERCENT DISCREPANCY =             -0.07    PERCENT DISCREPANCY =             -0.01



1
 SUMMARY VOLUMETRIC BUDGET FOR GSFLOW 
 DATE: 06 02 1981              CUMULATIVE TIME STEP:     245
 MODFLOW STRESS PERIOD      2     CURRENT TIME STEP:     245     ITERATIONS:      12

 -----------------------------------------------------------------------------------

   CUMULATIVE VOLUMES               L**3   RATES FOR THIS TIME STEP           L**3/T
   ------------------                      ------------------------

                                     IN                                         IN
                                     --                                         --
        PRECIPITATION =        1.8318D+07          PRECIPITATION =          50869.96
           STREAMFLOW =                               STREAMFLOW =                  
     GW BOUNDARY FLOW =                         GW BOUNDARY FLOW =                  


                                    OUT                                        OUT
                                    ---                                        ---
   EVAPOTRANSPIRATION =        1.2958D+07     EVAPOTRANSPIRATION =          78859.36
           STREAMFLOW =        6112023.26             STREAMFLOW =           7821.72
     GW BOUNDARY FLOW =         159414.76       GW BOUNDARY FLOW =            647.48

   INFLOWS - OUTFLOWS =        -911287.70     INFLOWS - OUTFLOWS =         -36458.60
             --------                                   --------

 TOTAL STORAGE CHANGE =        -898707.20         STORAGE CHANGE =         -36414.87
       --------------                             --------------
         LAND SURFACE =          73938.95           LAND SURFACE =          28862.99
            SOIL ZONE =         873803.36              SOIL ZONE =         -44214.90
     UNSATURATED ZONE =        -988268.75       UNSATURATED ZONE =         -12405.59
       SATURATED ZONE =        -858180.76         SATURATED ZONE =          -8657.37

 OVERALL BUDGET ERROR =         -12580.50           BUDGET ERROR =            -43.73


  PERCENT DISCREPANCY =             -0.07    PERCENT DISCREPANCY =             -0.05



1
 SUMMARY VOLUMETRIC BUDGET FOR GSFLOW 
 DATE: 06 09 1981              CUMULATIVE TIME STEP:     252
 MODFLOW STRESS PERIOD      2     CURRENT TIME STEP:     252     ITERATIONS:      20

 -----------------------------------------------------------------------------------

   CUMULATIVE VOLUMES               L**3   RATES FOR THIS TIME STEP           L**3/T
   ------------------                      ------------------------

                                     IN                                         IN
                                     --                                         --
        PRECIPITATION =        1.8318D+07          PRECIPITATION =                  
           STREAMFLOW =                               STREAMFLOW =                  
     GW BOUNDARY FLOW =                         GW BOUNDARY FLOW =                  


                                    OUT                                        OUT
                                    ---                                        ---
   EVAPOTRANSPIRATION =        1.3450D+07     EVAPOTRANSPIRATION =          54061.55
           STREAMFLOW =        6159757.64             STREAMFLOW =           6392.49
     GW BOUNDARY FLOW =         163944.93       GW BOUNDARY FLOW =            647.00

   INFLOWS - OUTFLOWS =       -1455421.63     INFLOWS - OUTFLOWS =         -61101.04
             --------                                   --------

 TOTAL STORAGE CHANGE =       -1442558.67         STORAGE CHANGE =         -61067.36
       --------------                             --------------
         LAND SURFACE =          12533.08           LAND SURFACE =          -2883.46
            SOIL ZONE =         544407.92              SOIL ZONE =         -36110.33
     UNSATURATED ZONE =       -1076864.67       UNSATURATED ZONE =         -12666.69
       SATURATED ZONE =        -922635.00         SATURATED ZONE =          -9406.89

 OVERALL BUDGET ERROR =         -12862.96           BUDGET ERROR =            -33.68


  PERCENT DISCREPANCY =             -0.07    PERCENT DISCREPANCY =             -0.06



1
 SUMMARY VOLUMETRIC BUDGET FOR GSFLOW 
 DATE: 06 16 1981              CUMULATIVE TIME STEP:     259
 MODFLOW STRESS PERIOD      2     CURRENT TIME STEP:     259     ITERATIONS:      13

 -----------------------------------------------------------------------------------

   CUMULATIVE VOLUMES               L**3   RATES FOR THIS TIME STEP           L**3/T
   ------------------                      ------------------------

                                     IN                                         IN
                                     --                                         --
        PRECIPITATION =        1.8318D+07          PRECIPITATION =                  
           STREAMFLOW =                               STREAMFLOW =                  
     GW BOUNDARY FLOW =                         GW BOUNDARY FLOW =                  


                                    OUT                                        OUT
                                    ---                                        ---
   EVAPOTRANSPIRATION =        1.3643D+07     EVAPOTRANSPIRATION =          44905.81
           STREAMFLOW =        6203012.78             STREAMFLOW =           6115.79
     GW BOUNDARY FLOW =         168472.93       GW BOUNDARY FLOW =            646.78

   INFLOWS - OUTFLOWS =       -1695998.92     INFLOWS - OUTFLOWS =         -51668.38
             --------                                   --------

 TOTAL STORAGE CHANGE =       -1682831.58         STORAGE CHANGE =         -51631.57
       --------------                             --------------
         LAND SURFACE =           5661.89           LAND SURFACE =          -1250.65
            SOIL ZONE =         464236.44              SOIL ZONE =         -28618.83
     UNSATURATED ZONE =       -1164129.15       UNSATURATED ZONE =         -12257.16
       SATURATED ZONE =        -988600.75         SATURATED ZONE =          -9504.93

 OVERALL BUDGET ERROR =         -13167.33           BUDGET ERROR =            -36.81


  PERCENT DISCREPANCY =             -0.07    PERCENT DISCREPANCY =             -0.07



1
 SUMMARY VOLUMETRIC BUDGET FOR GSFLOW 
 DATE: 06 23 1981              CUMULATIVE TIME STEP:     266
 MODFLOW STRESS PERIOD      2     CURRENT TIME STEP:     266     ITERATIONS:      13

 -----------------------------------------------------------------------------------

   CUMULATIVE VOLUMES               L**3   RATES FOR THIS TIME STEP           L**3/T
   ------------------                      ------------------------

                                     IN                                         IN
                                     --                                         --
        PRECIPITATION =        1.8318D+07          PRECIPITATION =                  
           STREAMFLOW =                               STREAMFLOW =                  
     GW BOUNDARY FLOW =                         GW BOUNDARY FLOW =                  


                                    OUT                                        OUT
                                    ---                                        ---
   EVAPOTRANSPIRATION =        1.3933D+07     EVAPOTRANSPIRATION =          34076.55
           STREAMFLOW =        6244939.49             STREAMFLOW =           5922.03
     GW BOUNDARY FLOW =         173001.00       GW BOUNDARY FLOW =            647.18

   INFLOWS - OUTFLOWS =       -2032667.15     INFLOWS - OUTFLOWS =         -40645.76
             --------                                   --------

 TOTAL STORAGE CHANGE =       -2019162.11         STORAGE CHANGE =         -40599.26
       --------------                             --------------
         LAND SURFACE =        2.9104D-11           LAND SURFACE =                  
            SOIL ZONE =         284727.46              SOIL ZONE =         -19122.14
     UNSATURATED ZONE =       -1246087.94       UNSATURATED ZONE =         -11306.15
       SATURATED ZONE =       -1057801.63         SATURATED ZONE =         -10170.97

 OVERALL BUDGET ERROR =         -13505.03           BUDGET ERROR =            -46.50


  PERCENT DISCREPANCY =             -0.07    PERCENT DISCREPANCY =             -0.11



1
 SUMMARY VOLUMETRIC BUDGET FOR GSFLOW 
 DATE: 06 30 1981              CUMULATIVE TIME STEP:     273
 MODFLOW STRESS PERIOD      2     CURRENT TIME STEP:     273     ITERATIONS:      13

 -----------------------------------------------------------------------------------

   CUMULATIVE VOLUMES               L**3   RATES FOR THIS TIME STEP           L**3/T
   ------------------                      ------------------------

                                     IN                                         IN
[...]
                                    ---                                        ---
   EVAPOTRANSPIRATION =        2.8719D+08     EVAPOTRANSPIRATION =          35914.93
           STREAMFLOW =        1.8230D+08             STREAMFLOW =           6985.16
     GW BOUNDARY FLOW =        3738429.62       GW BOUNDARY FLOW =            651.33

   INFLOWS - OUTFLOWS =       -8169436.61     INFLOWS - OUTFLOWS =         -43551.42
             --------                                   --------

 TOTAL STORAGE CHANGE =       -7977078.04         STORAGE CHANGE =         -43565.48
       --------------                             --------------
         LAND SURFACE =           3413.21           LAND SURFACE =           -684.23
            SOIL ZONE =         248925.57              SOIL ZONE =         -21383.60
     UNSATURATED ZONE =        5428429.00       UNSATURATED ZONE =         -27583.61
       SATURATED ZONE =       -1.3658D+07         SATURATED ZONE =           6085.95

 OVERALL BUDGET ERROR =        -192358.57           BUDGET ERROR =             14.06


  PERCENT DISCREPANCY =             -0.04    PERCENT DISCREPANCY =              0.03



1
 SUMMARY VOLUMETRIC BUDGET FOR GSFLOW 
 DATE: 07 30 1996              CUMULATIVE TIME STEP:    5782
 MODFLOW STRESS PERIOD      2     CURRENT TIME STEP:    5782     ITERATIONS:      15

 -----------------------------------------------------------------------------------

   CUMULATIVE VOLUMES               L**3   RATES FOR THIS TIME STEP           L**3/T
   ------------------                      ------------------------

                                     IN                                         IN
                                     --                                         --
        PRECIPITATION =        4.6511D+08          PRECIPITATION =                  
           STREAMFLOW =                               STREAMFLOW =                  
     GW BOUNDARY FLOW =                         GW BOUNDARY FLOW =                  


                                    OUT                                        OUT
                                    ---                                        ---
   EVAPOTRANSPIRATION =        2.8741D+08     EVAPOTRANSPIRATION =          23798.81
           STREAMFLOW =        1.8235D+08             STREAMFLOW =           6819.27
     GW BOUNDARY FLOW =        3742987.14       GW BOUNDARY FLOW =            650.88

   INFLOWS - OUTFLOWS =       -8394062.04     INFLOWS - OUTFLOWS =         -31268.96
             --------                                   --------

 TOTAL STORAGE CHANGE =       -8201762.58         STORAGE CHANGE =         -31282.84
       --------------                             --------------
         LAND SURFACE =            303.92           LAND SURFACE =           -298.55
            SOIL ZONE =         176378.60              SOIL ZONE =          -9829.42
     UNSATURATED ZONE =        5240221.48       UNSATURATED ZONE =         -26400.40
       SATURATED ZONE =       -1.3619D+07         SATURATED ZONE =           5245.52

 OVERALL BUDGET ERROR =        -192299.47           BUDGET ERROR =             13.89


  PERCENT DISCREPANCY =             -0.04    PERCENT DISCREPANCY =              0.04



1
 SUMMARY VOLUMETRIC BUDGET FOR GSFLOW 
 DATE: 08 06 1996              CUMULATIVE TIME STEP:    5789
 MODFLOW STRESS PERIOD      2     CURRENT TIME STEP:    5789     ITERATIONS:      15

 -----------------------------------------------------------------------------------

   CUMULATIVE VOLUMES               L**3   RATES FOR THIS TIME STEP           L**3/T
   ------------------                      ------------------------

                                     IN                                         IN
                                     --                                         --
        PRECIPITATION =        4.6511D+08          PRECIPITATION =                  
           STREAMFLOW =                               STREAMFLOW =                  
     GW BOUNDARY FLOW =                         GW BOUNDARY FLOW =                  


                                    OUT                                        OUT
                                    ---                                        ---
   EVAPOTRANSPIRATION =        2.8754D+08     EVAPOTRANSPIRATION =          15624.75
           STREAMFLOW =        1.8240D+08             STREAMFLOW =           6621.17
     GW BOUNDARY FLOW =        3747542.99       GW BOUNDARY FLOW =            650.79

   INFLOWS - OUTFLOWS =       -8573141.41     INFLOWS - OUTFLOWS =         -22896.71
             --------                                   --------

 TOTAL STORAGE CHANGE =       -8380891.64         STORAGE CHANGE =         -22899.56
       --------------                             --------------
         LAND SURFACE =        2.3783D-08           LAND SURFACE =                  
            SOIL ZONE =         144366.04              SOIL ZONE =          -2060.95
     UNSATURATED ZONE =        5058309.34       UNSATURATED ZONE =         -25695.78
       SATURATED ZONE =       -1.3584D+07         SATURATED ZONE =           4857.17

 OVERALL BUDGET ERROR =        -192249.76           BUDGET ERROR =              2.85


  PERCENT DISCREPANCY =             -0.04    PERCENT DISCREPANCY =              0.01



1
 SUMMARY VOLUMETRIC BUDGET FOR GSFLOW 
 DATE: 08 13 1996              CUMULATIVE TIME STEP:    5796
 MODFLOW STRESS PERIOD      2     CURRENT TIME STEP:    5796     ITERATIONS:      15

 -----------------------------------------------------------------------------------

   CUMULATIVE VOLUMES               L**3   RATES FOR THIS TIME STEP           L**3/T
   ------------------                      ------------------------

                                     IN                                         IN
                                     --                                         --
        PRECIPITATION =        4.6531D+08          PRECIPITATION =          54454.08
           STREAMFLOW =                               STREAMFLOW =                  
     GW BOUNDARY FLOW =                         GW BOUNDARY FLOW =                  


                                    OUT                                        OUT
                                    ---                                        ---
   EVAPOTRANSPIRATION =        2.8769D+08     EVAPOTRANSPIRATION =          29318.39
           STREAMFLOW =        1.8245D+08             STREAMFLOW =           7809.25
     GW BOUNDARY FLOW =        3752098.07       GW BOUNDARY FLOW =            650.75

   INFLOWS - OUTFLOWS =       -8580565.66     INFLOWS - OUTFLOWS =          16675.70
             --------                                   --------

 TOTAL STORAGE CHANGE =       -8388352.26         STORAGE CHANGE =          16661.78
       --------------                             --------------
         LAND SURFACE =          34505.06           LAND SURFACE =                  
            SOIL ZONE =         246782.96              SOIL ZONE =          37099.61
     UNSATURATED ZONE =        4882600.00       UNSATURATED ZONE =         -24492.63
       SATURATED ZONE =       -1.3552D+07         SATURATED ZONE =           4054.81

 OVERALL BUDGET ERROR =        -192213.40           BUDGET ERROR =             13.91


  PERCENT DISCREPANCY =             -0.04    PERCENT DISCREPANCY =              0.03



1
 SUMMARY VOLUMETRIC BUDGET FOR GSFLOW 
 DATE: 08 20 1996              CUMULATIVE TIME STEP:    5803
 MODFLOW STRESS PERIOD      2     CURRENT TIME STEP:    5803     ITERATIONS:      16

 -----------------------------------------------------------------------------------

   CUMULATIVE VOLUMES               L**3   RATES FOR THIS TIME STEP           L**3/T
   ------------------                      ------------------------

                                     IN                                         IN
                                     --                                         --
        PRECIPITATION =        4.6531D+08          PRECIPITATION =                  
           STREAMFLOW =                               STREAMFLOW =                  
     GW BOUNDARY FLOW =                         GW BOUNDARY FLOW =                  


                                    OUT                                        OUT
                                    ---                                        ---
   EVAPOTRANSPIRATION =        2.8788D+08     EVAPOTRANSPIRATION =          17109.80
           STREAMFLOW =        1.8249D+08             STREAMFLOW =           6426.07
     GW BOUNDARY FLOW =        3756651.65       GW BOUNDARY FLOW =            650.34

   INFLOWS - OUTFLOWS =       -8817839.48     INFLOWS - OUTFLOWS =         -24186.21
             --------                                   --------

 TOTAL STORAGE CHANGE =       -8625636.31         STORAGE CHANGE =         -24183.47
       --------------                             --------------
         LAND SURFACE =        2.3785D-08           LAND SURFACE =                  
            SOIL ZONE =         186837.23              SOIL ZONE =          -3889.58
     UNSATURATED ZONE =        4717615.13       UNSATURATED ZONE =         -22948.36
       SATURATED ZONE =       -1.3530D+07         SATURATED ZONE =           2654.47

 OVERALL BUDGET ERROR =        -192203.17           BUDGET ERROR =             -2.74


  PERCENT DISCREPANCY =             -0.04    PERCENT DISCREPANCY =             -0.01



1
 SUMMARY VOLUMETRIC BUDGET FOR GSFLOW 
 DATE: 08 27 1996              CUMULATIVE TIME STEP:    5810
 MODFLOW STRESS PERIOD      2     CURRENT TIME STEP:    5810     ITERATIONS:      15

 -----------------------------------------------------------------------------------

   CUMULATIVE VOLUMES               L**3   RATES FOR THIS TIME STEP           L**3/T
   ------------------                      ------------------------

                                     IN                                         IN
                                     --                                         --
        PRECIPITATION =        4.6531D+08          PRECIPITATION =                  
           STREAMFLOW =                               STREAMFLOW =                  
     GW BOUNDARY FLOW =                         GW BOUNDARY FLOW =                  


                                    OUT                                        OUT
                                    ---                                        ---
   EVAPOTRANSPIRATION =        2.8801D+08     EVAPOTRANSPIRATION =          15227.41
           STREAMFLOW =        1.8254D+08             STREAMFLOW =           6274.00
     GW BOUNDARY FLOW =        3761202.50       GW BOUNDARY FLOW =            649.96

   INFLOWS - OUTFLOWS =       -9000353.44     INFLOWS - OUTFLOWS =         -22151.36
             --------                                   --------

 TOTAL STORAGE CHANGE =       -8808125.80         STORAGE CHANGE =         -22146.26
       --------------                             --------------
         LAND SURFACE =        2.3785D-08           LAND SURFACE =                  
            SOIL ZONE =         145411.96              SOIL ZONE =          -2099.68
     UNSATURATED ZONE =        4561132.86       UNSATURATED ZONE =         -22318.40
       SATURATED ZONE =       -1.3515D+07         SATURATED ZONE =           2271.83

 OVERALL BUDGET ERROR =        -192227.64           BUDGET ERROR =             -5.11


  PERCENT DISCREPANCY =             -0.04    PERCENT DISCREPANCY =             -0.02



1
 SUMMARY VOLUMETRIC BUDGET FOR GSFLOW 
 DATE: 09 03 1996              CUMULATIVE TIME STEP:    5817
 MODFLOW STRESS PERIOD      2     CURRENT TIME STEP:    5817     ITERATIONS:      17

 -----------------------------------------------------------------------------------

   CUMULATIVE VOLUMES               L**3   RATES FOR THIS TIME STEP           L**3/T
   ------------------                      ------------------------

                                     IN                                         IN
                                     --                                         --
        PRECIPITATION =        4.6531D+08          PRECIPITATION =                  
           STREAMFLOW =                               STREAMFLOW =                  
     GW BOUNDARY FLOW =                         GW BOUNDARY FLOW =                  


                                    OUT                                        OUT
                                    ---                                        ---
   EVAPOTRANSPIRATION =        2.8812D+08     EVAPOTRANSPIRATION =          13020.86
           STREAMFLOW =        1.8258D+08             STREAMFLOW =           6170.23
     GW BOUNDARY FLOW =        3765750.73       GW BOUNDARY FLOW =            649.59

   INFLOWS - OUTFLOWS =       -9155139.33     INFLOWS - OUTFLOWS =         -19840.68
             --------                                   --------

 TOTAL STORAGE CHANGE =       -8962886.72         STORAGE CHANGE =         -19839.04
       --------------                             --------------
         LAND SURFACE =        2.3785D-08           LAND SURFACE =                  
            SOIL ZONE =         130056.40              SOIL ZONE =            -22.09
     UNSATURATED ZONE =        4409001.65       UNSATURATED ZONE =         -21266.01
       SATURATED ZONE =       -1.3502D+07         SATURATED ZONE =           1449.05

 OVERALL BUDGET ERROR =        -192252.62           BUDGET ERROR =             -1.64


  PERCENT DISCREPANCY =             -0.04    PERCENT DISCREPANCY =             -0.01



1
 SUMMARY VOLUMETRIC BUDGET FOR GSFLOW 
 DATE: 09 10 1996              CUMULATIVE TIME STEP:    5824
 MODFLOW STRESS PERIOD      2     CURRENT TIME STEP:    5824     ITERATIONS:      14

 -----------------------------------------------------------------------------------

   CUMULATIVE VOLUMES               L**3   RATES FOR THIS TIME STEP           L**3/T
   ------------------                      ------------------------

                                     IN                                         IN
                                     --                                         --
        PRECIPITATION =        4.6531D+08          PRECIPITATION =                  
           STREAMFLOW =                               STREAMFLOW =                  
     GW BOUNDARY FLOW =                         GW BOUNDARY FLOW =                  


                                    OUT                                        OUT
                                    ---                                        ---
   EVAPOTRANSPIRATION =        2.8820D+08     EVAPOTRANSPIRATION =          13316.14
           STREAMFLOW =        1.8262D+08             STREAMFLOW =           6078.71
     GW BOUNDARY FLOW =        3770296.45       GW BOUNDARY FLOW =            649.23

   INFLOWS - OUTFLOWS =       -9284868.56     INFLOWS - OUTFLOWS =         -20044.08
             --------                                   --------

 TOTAL STORAGE CHANGE =       -9092577.79         STORAGE CHANGE =         -20035.42
       --------------                             --------------
         LAND SURFACE =        2.3785D-08           LAND SURFACE =                  
            SOIL ZONE =         138176.06              SOIL ZONE =           -444.54
     UNSATURATED ZONE =        4263742.80       UNSATURATED ZONE =         -20742.19
       SATURATED ZONE =       -1.3494D+07         SATURATED ZONE =           1151.31

 OVERALL BUDGET ERROR =        -192290.78           BUDGET ERROR =             -8.66


  PERCENT DISCREPANCY =             -0.04    PERCENT DISCREPANCY =             -0.04



1
 SUMMARY VOLUMETRIC BUDGET FOR GSFLOW 
 DATE: 09 17 1996              CUMULATIVE TIME STEP:    5831
 MODFLOW STRESS PERIOD      2     CURRENT TIME STEP:    5831     ITERATIONS:      13

 -----------------------------------------------------------------------------------

   CUMULATIVE VOLUMES               L**3   RATES FOR THIS TIME STEP           L**3/T
   ------------------                      ------------------------

                                     IN                                         IN
                                     --                                         --
        PRECIPITATION =        4.6637D+08          PRECIPITATION =                  
           STREAMFLOW =                               STREAMFLOW =                  
     GW BOUNDARY FLOW =                         GW BOUNDARY FLOW =                  


                                    OUT                                        OUT
                                    ---                                        ---
   EVAPOTRANSPIRATION =        2.8839D+08     EVAPOTRANSPIRATION =          67792.43
           STREAMFLOW =        1.8269D+08             STREAMFLOW =          10189.15
     GW BOUNDARY FLOW =        3774841.61       GW BOUNDARY FLOW =            649.65

   INFLOWS - OUTFLOWS =       -8491636.46     INFLOWS - OUTFLOWS =         -78631.22
             --------                                   --------

 TOTAL STORAGE CHANGE =       -8299347.12         STORAGE CHANGE =         -78635.55
       --------------                             --------------
         LAND SURFACE =        2.3785D-08           LAND SURFACE =         -34505.06
            SOIL ZONE =        1065512.10              SOIL ZONE =         -24742.95
     UNSATURATED ZONE =        4120523.22       UNSATURATED ZONE =         -20089.35
       SATURATED ZONE =       -1.3485D+07         SATURATED ZONE =            701.82

 OVERALL BUDGET ERROR =        -192289.34           BUDGET ERROR =              4.32


  PERCENT DISCREPANCY =             -0.04    PERCENT DISCREPANCY =              0.01



1
 SUMMARY VOLUMETRIC BUDGET FOR GSFLOW 
 DATE: 09 24 1996              CUMULATIVE TIME STEP:    5838
 MODFLOW STRESS PERIOD      2     CURRENT TIME STEP:    5838     ITERATIONS:      12

 -----------------------------------------------------------------------------------

   CUMULATIVE VOLUMES               L**3   RATES FOR THIS TIME STEP           L**3/T
   ------------------                      ------------------------

                                     IN                                         IN
                                     --                                         --
        PRECIPITATION =        4.6637D+08          PRECIPITATION =                  
           STREAMFLOW =                               STREAMFLOW =                  
     GW BOUNDARY FLOW =                         GW BOUNDARY FLOW =                  


                                    OUT                                        OUT
                                    ---                                        ---
   EVAPOTRANSPIRATION =        2.8890D+08     EVAPOTRANSPIRATION =          55414.80
           STREAMFLOW =        1.8274D+08             STREAMFLOW =           6567.07
     GW BOUNDARY FLOW =        3779385.20       GW BOUNDARY FLOW =            648.75

   INFLOWS - OUTFLOWS =       -9059539.04     INFLOWS - OUTFLOWS =         -62630.63
             --------                                   --------

 TOTAL STORAGE CHANGE =       -8867275.13         STORAGE CHANGE =         -62631.06
       --------------                             --------------
         LAND SURFACE =        2.3785D-08           LAND SURFACE =                  
            SOIL ZONE =         632684.49              SOIL ZONE =         -43425.47
     UNSATURATED ZONE =        3983936.87       UNSATURATED ZONE =         -19108.88
       SATURATED ZONE =       -1.3484D+07         SATURATED ZONE =            -96.71

 OVERALL BUDGET ERROR =        -192263.91           BUDGET ERROR =              0.44


  PERCENT DISCREPANCY =             -0.04    PERCENT DISCREPANCY =              0.00



