1
 SUMMARY VOLUMETRIC BUDGET FOR GSFLOW 
 DATE: 09 08 1983              CUMULATIVE TIME STEP:    1073
 MODFLOW STRESS PERIOD      2     CURRENT TIME STEP:    1072     ITERATIONS:      10

 -----------------------------------------------------------------------------------

   CUMULATIVE VOLUMES               L**3   RATES FOR THIS TIME STEP           L**3/T
   ------------------                      ------------------------

                                     IN                                         IN
                                     --                                         --
        PRECIPITATION =                            PRECIPITATION =                  
           STREAMFLOW =                               STREAMFLOW =                  
     GW BOUNDARY FLOW =                         GW BOUNDARY FLOW =                  
                WELLS =            184.45                  WELLS =             26.09


                                    OUT                                        OUT
                                    ---                                        ---
   EVAPOTRANSPIRATION =         464018.02     EVAPOTRANSPIRATION =          56379.26
           STREAMFLOW =          34251.45             STREAMFLOW =           4280.32
     GW BOUNDARY FLOW =           5012.07       GW BOUNDARY FLOW =            715.75
                WELLS =           6129.74                  WELLS =            925.62

   INFLOWS - OUTFLOWS =        -509226.83     INFLOWS - OUTFLOWS =         -62274.86
             --------                                   --------

 TOTAL STORAGE CHANGE =        -509211.25         STORAGE CHANGE =         -62272.74
       --------------                             --------------
         LAND SURFACE =         -92539.91           LAND SURFACE =          -8426.91
            SOIL ZONE =        -305852.30              SOIL ZONE =         -37852.68
     UNSATURATED ZONE =         -51888.56       UNSATURATED ZONE =          -7389.79
       SATURATED ZONE =         -58930.47         SATURATED ZONE =          -8603.35

 OVERALL BUDGET ERROR =            -15.59           BUDGET ERROR =             -2.13


  PERCENT DISCREPANCY =             -0.00    PERCENT DISCREPANCY =             -0.00



