1
 SUMMARY VOLUMETRIC BUDGET FOR GSFLOW 
 DATE: 09 22 1983              CUMULATIVE TIME STEP:    1087
 MODFLOW STRESS PERIOD      2     CURRENT TIME STEP:    1086     ITERATIONS:      10

 -----------------------------------------------------------------------------------

   CUMULATIVE VOLUMES               L**3   RATES FOR THIS TIME STEP           L**3/T
   ------------------                      ------------------------

                                     IN                                         IN
                                     --                                         --
        PRECIPITATION =         297317.16          PRECIPITATION =         297317.16
           STREAMFLOW =                               STREAMFLOW =                  
     GW BOUNDARY FLOW =                         GW BOUNDARY FLOW =                  
                WELLS =            132.70                  WELLS =             12.45


                                    OUT                                        OUT
                                    ---                                        ---
   EVAPOTRANSPIRATION =         205892.04     EVAPOTRANSPIRATION =          36463.54
           STREAMFLOW =          30023.33             STREAMFLOW =           7439.02
     GW BOUNDARY FLOW =           5010.23       GW BOUNDARY FLOW =            716.29
                WELLS =           4845.58                  WELLS =            414.83

   INFLOWS - OUTFLOWS =          51678.67     INFLOWS - OUTFLOWS =         252295.94
             --------                                   --------

 TOTAL STORAGE CHANGE =          51702.73         STORAGE CHANGE =         252298.90
       --------------                             --------------
         LAND SURFACE =          14073.33           LAND SURFACE =          32092.38
            SOIL ZONE =         146658.22              SOIL ZONE =         234665.08
     UNSATURATED ZONE =         -49338.72       UNSATURATED ZONE =          -6977.03
       SATURATED ZONE =         -59690.10         SATURATED ZONE =          -7481.52

 OVERALL BUDGET ERROR =            -24.06           BUDGET ERROR =             -2.97


  PERCENT DISCREPANCY =             -0.01    PERCENT DISCREPANCY =             -0.00



