1
 SUMMARY VOLUMETRIC BUDGET FOR GSFLOW 
 DATE: 09 08 1983              CUMULATIVE TIME STEP:    1073
 MODFLOW STRESS PERIOD      2     CURRENT TIME STEP:    1072     ITERATIONS:      10

 -----------------------------------------------------------------------------------

   CUMULATIVE VOLUMES               L**3   RATES FOR THIS TIME STEP           L**3/T
   ------------------                      ------------------------

                                     IN                                         IN
                                     --                                         --
        PRECIPITATION =                            PRECIPITATION =                  
           STREAMFLOW =                               STREAMFLOW =                  
     GW BOUNDARY FLOW =                         GW BOUNDARY FLOW =                  
                WELLS =            181.92                  WELLS =             23.48


                                    OUT                                        OUT
                                    ---                                        ---
   EVAPOTRANSPIRATION =         494600.62     EVAPOTRANSPIRATION =          65746.81
           STREAMFLOW =          66557.17             STREAMFLOW =           8366.97
     GW BOUNDARY FLOW =           5017.80       GW BOUNDARY FLOW =            716.55
                WELLS =           3525.23                  WELLS =            502.36

   INFLOWS - OUTFLOWS =        -569518.90     INFLOWS - OUTFLOWS =         -75309.21
             --------                                   --------

 TOTAL STORAGE CHANGE =        -569508.35         STORAGE CHANGE =         -75307.43
       --------------                             --------------
         LAND SURFACE =        -194428.42           LAND SURFACE =         -24684.57
            SOIL ZONE =        -283091.59              SOIL ZONE =         -37084.68
     UNSATURATED ZONE =         -35448.55       UNSATURATED ZONE =          -5329.52
       SATURATED ZONE =         -56539.79         SATURATED ZONE =          -8208.66

 OVERALL BUDGET ERROR =            -10.55           BUDGET ERROR =             -1.79


  PERCENT DISCREPANCY =             -0.00    PERCENT DISCREPANCY =             -0.00



