1
 SUMMARY VOLUMETRIC BUDGET FOR GSFLOW 
 DATE: 11 10 1983              CUMULATIVE TIME STEP:    1136
 MODFLOW STRESS PERIOD      2     CURRENT TIME STEP:    1135     ITERATIONS:       9

 -----------------------------------------------------------------------------------

   CUMULATIVE VOLUMES               L**3   RATES FOR THIS TIME STEP           L**3/T
   ------------------                      ------------------------

                                     IN                                         IN
                                     --                                         --
        PRECIPITATION =        1961472.48          PRECIPITATION =        1338149.95
           STREAMFLOW =                               STREAMFLOW =                  
     GW BOUNDARY FLOW =                         GW BOUNDARY FLOW =                  
                WELLS =            195.56                  WELLS =             27.36


                                    OUT                                        OUT
                                    ---                                        ---
   EVAPOTRANSPIRATION =         194673.00     EVAPOTRANSPIRATION =          16472.16
           STREAMFLOW =         304033.23             STREAMFLOW =          88605.87
     GW BOUNDARY FLOW =           5050.67       GW BOUNDARY FLOW =            723.68
                WELLS =           5279.05                  WELLS =            930.58

   INFLOWS - OUTFLOWS =        1452632.09     INFLOWS - OUTFLOWS =        1231445.02
             --------                                   --------

 TOTAL STORAGE CHANGE =        1452652.27         STORAGE CHANGE =        1231448.05
       --------------                             --------------
         LAND SURFACE =         625517.68           LAND SURFACE =        1036800.83
            SOIL ZONE =         879432.37              SOIL ZONE =         195403.97
     UNSATURATED ZONE =            217.28       UNSATURATED ZONE =           5851.89
       SATURATED ZONE =         -52515.05         SATURATED ZONE =          -6608.64

 OVERALL BUDGET ERROR =            -20.18           BUDGET ERROR =             -3.03


  PERCENT DISCREPANCY =             -0.00    PERCENT DISCREPANCY =             -0.00



