1
 SUMMARY VOLUMETRIC BUDGET FOR GSFLOW 
 DATE: 12 08 1983              CUMULATIVE TIME STEP:    1164
 MODFLOW STRESS PERIOD      2     CURRENT TIME STEP:    1163     ITERATIONS:      10

 -----------------------------------------------------------------------------------

   CUMULATIVE VOLUMES               L**3   RATES FOR THIS TIME STEP           L**3/T
   ------------------                      ------------------------

                                     IN                                         IN
                                     --                                         --
        PRECIPITATION =        2208274.44          PRECIPITATION =         240449.16
           STREAMFLOW =                               STREAMFLOW =                  
     GW BOUNDARY FLOW =                         GW BOUNDARY FLOW =                  
                WELLS =            128.89                  WELLS =             18.79


                                    OUT                                        OUT
                                    ---                                        ---
   EVAPOTRANSPIRATION =          48947.26     EVAPOTRANSPIRATION =          12193.06
           STREAMFLOW =         102610.84             STREAMFLOW =          14070.76
     GW BOUNDARY FLOW =           5036.46       GW BOUNDARY FLOW =            719.34
                WELLS =           6126.66                  WELLS =            867.00

   INFLOWS - OUTFLOWS =        2045682.11     INFLOWS - OUTFLOWS =         212617.79
             --------                                   --------

 TOTAL STORAGE CHANGE =        2045689.23         STORAGE CHANGE =         212618.59
       --------------                             --------------
         LAND SURFACE =        2159327.20           LAND SURFACE =         228256.11
            SOIL ZONE =         -34411.39              SOIL ZONE =          -3595.14
     UNSATURATED ZONE =         -15164.01       UNSATURATED ZONE =          -2798.45
       SATURATED ZONE =         -64062.56         SATURATED ZONE =          -9243.92

 OVERALL BUDGET ERROR =             -7.12           BUDGET ERROR =             -0.80


  PERCENT DISCREPANCY =             -0.00    PERCENT DISCREPANCY =             -0.00



1
 SUMMARY VOLUMETRIC BUDGET FOR GSFLOW 
 DATE: 12 15 1983              CUMULATIVE TIME STEP:    1171
 MODFLOW STRESS PERIOD      2     CURRENT TIME STEP:    1170     ITERATIONS:       9

 -----------------------------------------------------------------------------------

   CUMULATIVE VOLUMES               L**3   RATES FOR THIS TIME STEP           L**3/T
   ------------------                      ------------------------

                                     IN                                         IN
                                     --                                         --
        PRECIPITATION =        4659738.95          PRECIPITATION =                  
           STREAMFLOW =                               STREAMFLOW =                  
     GW BOUNDARY FLOW =                         GW BOUNDARY FLOW =                  
                WELLS =            287.86                  WELLS =             22.56


                                    OUT                                        OUT
                                    ---                                        ---
   EVAPOTRANSPIRATION =         163952.24     EVAPOTRANSPIRATION =          32312.36
           STREAMFLOW =         197648.05             STREAMFLOW =          13308.57
     GW BOUNDARY FLOW =          10070.24       GW BOUNDARY FLOW =            718.94
                WELLS =          13806.69                  WELLS =            936.84

   INFLOWS - OUTFLOWS =        4274549.58     INFLOWS - OUTFLOWS =         -47254.14
             --------                                   --------

 TOTAL STORAGE CHANGE =        4274564.86         STORAGE CHANGE =         -47252.89
       --------------                             --------------
         LAND SURFACE =        4495776.30           LAND SURFACE =         -32322.79
            SOIL ZONE =         -51349.08              SOIL ZONE =          -1686.94
     UNSATURATED ZONE =         -38617.50       UNSATURATED ZONE =          -3733.14
       SATURATED ZONE =        -131244.86         SATURATED ZONE =          -9510.03

 OVERALL BUDGET ERROR =            -15.28           BUDGET ERROR =             -1.25


  PERCENT DISCREPANCY =             -0.00    PERCENT DISCREPANCY =             -0.00



1
 SUMMARY VOLUMETRIC BUDGET FOR GSFLOW 
 DATE: 12 22 1983              CUMULATIVE TIME STEP:    1178
 MODFLOW STRESS PERIOD      2     CURRENT TIME STEP:    1177     ITERATIONS:       9

 -----------------------------------------------------------------------------------

   CUMULATIVE VOLUMES               L**3   RATES FOR THIS TIME STEP           L**3/T
   ------------------                      ------------------------

                                     IN                                         IN
                                     --                                         --
        PRECIPITATION =        5428172.53          PRECIPITATION =         194584.49
           STREAMFLOW =                               STREAMFLOW =                  
     GW BOUNDARY FLOW =                         GW BOUNDARY FLOW =                  
                WELLS =            443.25                  WELLS =             21.95


                                    OUT                                        OUT
                                    ---                                        ---
   EVAPOTRANSPIRATION =         247700.12     EVAPOTRANSPIRATION =           1306.42
           STREAMFLOW =         297927.29             STREAMFLOW =          13581.99
     GW BOUNDARY FLOW =          15102.83       GW BOUNDARY FLOW =            718.85
                WELLS =          20242.32                  WELLS =            907.55

   INFLOWS - OUTFLOWS =        4847643.22     INFLOWS - OUTFLOWS =         178091.63
             --------                                   --------

 TOTAL STORAGE CHANGE =        4847673.10         STORAGE CHANGE =         178094.24
       --------------                             --------------
         LAND SURFACE =        5158805.80           LAND SURFACE =         193278.08
            SOIL ZONE =         -49043.67              SOIL ZONE =          -1840.20
     UNSATURATED ZONE =         -64547.48       UNSATURATED ZONE =          -3827.89
       SATURATED ZONE =        -197541.55         SATURATED ZONE =          -9515.75

 OVERALL BUDGET ERROR =            -29.88           BUDGET ERROR =             -2.60


  PERCENT DISCREPANCY =             -0.00    PERCENT DISCREPANCY =             -0.00



1
 SUMMARY VOLUMETRIC BUDGET FOR GSFLOW 
 DATE: 12 29 1983              CUMULATIVE TIME STEP:    1185
 MODFLOW STRESS PERIOD      2     CURRENT TIME STEP:    1184     ITERATIONS:       9

 -----------------------------------------------------------------------------------

   CUMULATIVE VOLUMES               L**3   RATES FOR THIS TIME STEP           L**3/T
   ------------------                      ------------------------

                                     IN                                         IN
                                     --                                         --
        PRECIPITATION =        9285111.36          PRECIPITATION =         222494.69
           STREAMFLOW =                               STREAMFLOW =                  
     GW BOUNDARY FLOW =                         GW BOUNDARY FLOW =                  
                WELLS =            594.60                  WELLS =             21.38


                                    OUT                                        OUT
                                    ---                                        ---
   EVAPOTRANSPIRATION =         314160.57     EVAPOTRANSPIRATION =          13625.69
           STREAMFLOW =         390205.73             STREAMFLOW =          12976.13
     GW BOUNDARY FLOW =          20133.54       GW BOUNDARY FLOW =            718.55
                WELLS =          26504.43                  WELLS =            885.76

   INFLOWS - OUTFLOWS =        8534701.70     INFLOWS - OUTFLOWS =         194309.93
             --------                                   --------

 TOTAL STORAGE CHANGE =        8534748.65         STORAGE CHANGE =         194312.82
       --------------                             --------------
         LAND SURFACE =        8949284.16           LAND SURFACE =         208869.01
            SOIL ZONE =         -56885.83              SOIL ZONE =           -799.98
     UNSATURATED ZONE =         -92887.12       UNSATURATED ZONE =          -4119.52
       SATURATED ZONE =        -264762.56         SATURATED ZONE =          -9636.69

 OVERALL BUDGET ERROR =            -46.96           BUDGET ERROR =             -2.88


  PERCENT DISCREPANCY =             -0.00    PERCENT DISCREPANCY =             -0.00



1
 SUMMARY VOLUMETRIC BUDGET FOR GSFLOW 
 DATE: 01 05 1984              CUMULATIVE TIME STEP:    1192
 MODFLOW STRESS PERIOD      2     CURRENT TIME STEP:    1191     ITERATIONS:       8

 -----------------------------------------------------------------------------------

   CUMULATIVE VOLUMES               L**3   RATES FOR THIS TIME STEP           L**3/T
   ------------------                      ------------------------

                                     IN                                         IN
                                     --                                         --
        PRECIPITATION =        9947976.66          PRECIPITATION =                  
           STREAMFLOW =                               STREAMFLOW =                  
     GW BOUNDARY FLOW =                         GW BOUNDARY FLOW =                  
                WELLS =            741.53                  WELLS =             20.67


                                    OUT                                        OUT
                                    ---                                        ---
   EVAPOTRANSPIRATION =         519533.50     EVAPOTRANSPIRATION =          42373.51
           STREAMFLOW =         515865.29             STREAMFLOW =          26005.13
     GW BOUNDARY FLOW =          25165.79       GW BOUNDARY FLOW =            719.49
                WELLS =          32635.95                  WELLS =            869.17

   INFLOWS - OUTFLOWS =        8855517.67     INFLOWS - OUTFLOWS =         -69946.64
             --------                                   --------

 TOTAL STORAGE CHANGE =        8855577.31         STORAGE CHANGE =         -69945.06
       --------------                             --------------
         LAND SURFACE =        9237911.87           LAND SURFACE =        -111259.31
            SOIL ZONE =          55901.53              SOIL ZONE =          49252.50
     UNSATURATED ZONE =        -108403.61       UNSATURATED ZONE =            709.06
       SATURATED ZONE =        -329832.48         SATURATED ZONE =          -8647.31

 OVERALL BUDGET ERROR =            -59.64           BUDGET ERROR =             -1.58


  PERCENT DISCREPANCY =             -0.00    PERCENT DISCREPANCY =             -0.00



1
 SUMMARY VOLUMETRIC BUDGET FOR GSFLOW 
 DATE: 01 12 1984              CUMULATIVE TIME STEP:    1199
 MODFLOW STRESS PERIOD      2     CURRENT TIME STEP:    1198     ITERATIONS:       9

 -----------------------------------------------------------------------------------

   CUMULATIVE VOLUMES               L**3   RATES FOR THIS TIME STEP           L**3/T
   ------------------                      ------------------------

                                     IN                                         IN
                                     --                                         --
        PRECIPITATION =        9947976.66          PRECIPITATION =                  
           STREAMFLOW =                               STREAMFLOW =                  
     GW BOUNDARY FLOW =                         GW BOUNDARY FLOW =                  
                WELLS =            916.34                  WELLS =             24.88


                                    OUT                                        OUT
                                    ---                                        ---
   EVAPOTRANSPIRATION =         725377.75     EVAPOTRANSPIRATION =          12339.52
           STREAMFLOW =         773147.74             STREAMFLOW =          29153.32
     GW BOUNDARY FLOW =          30213.02       GW BOUNDARY FLOW =            721.01
                WELLS =          38343.04                  WELLS =            927.99

   INFLOWS - OUTFLOWS =        8381811.45     INFLOWS - OUTFLOWS =         -43116.95
             --------                                   --------

 TOTAL STORAGE CHANGE =        8381879.59         STORAGE CHANGE =         -43116.24
       --------------                             --------------
         LAND SURFACE =        8658206.65           LAND SURFACE =         -12339.52
            SOIL ZONE =         179153.49              SOIL ZONE =         -27461.78
     UNSATURATED ZONE =         -66262.74       UNSATURATED ZONE =           5850.96
       SATURATED ZONE =        -389217.81         SATURATED ZONE =          -9165.91

 OVERALL BUDGET ERROR =            -68.14           BUDGET ERROR =             -0.71


  PERCENT DISCREPANCY =             -0.00    PERCENT DISCREPANCY =             -0.00



1
 SUMMARY VOLUMETRIC BUDGET FOR GSFLOW 
 DATE: 01 19 1984              CUMULATIVE TIME STEP:    1206
 MODFLOW STRESS PERIOD      2     CURRENT TIME STEP:    1205     ITERATIONS:       9

 -----------------------------------------------------------------------------------

   CUMULATIVE VOLUMES               L**3   RATES FOR THIS TIME STEP           L**3/T
   ------------------                      ------------------------

                                     IN                                         IN
                                     --                                         --
        PRECIPITATION =        1.0194D+07          PRECIPITATION =                  
           STREAMFLOW =                               STREAMFLOW =                  
     GW BOUNDARY FLOW =                         GW BOUNDARY FLOW =                  
                WELLS =           1088.26                  WELLS =             24.32


                                    OUT                                        OUT
                                    ---                                        ---
   EVAPOTRANSPIRATION =         761264.62     EVAPOTRANSPIRATION =          13198.52
           STREAMFLOW =         924997.52             STREAMFLOW =          18150.04
     GW BOUNDARY FLOW =          35252.28       GW BOUNDARY FLOW =            719.22
                WELLS =          44755.00                  WELLS =            907.81

   INFLOWS - OUTFLOWS =        8429303.27     INFLOWS - OUTFLOWS =         -32951.27
             --------                                   --------

 TOTAL STORAGE CHANGE =        8429373.63         STORAGE CHANGE =         -32950.49
       --------------                             --------------
         LAND SURFACE =        8868827.57           LAND SURFACE =         -13198.52
            SOIL ZONE =          57635.52              SOIL ZONE =         -12067.75
     UNSATURATED ZONE =         -43318.12       UNSATURATED ZONE =           1551.58
       SATURATED ZONE =        -453771.33         SATURATED ZONE =          -9235.80

 OVERALL BUDGET ERROR =            -70.36           BUDGET ERROR =             -0.78


  PERCENT DISCREPANCY =             -0.00    PERCENT DISCREPANCY =             -0.00



1
 SUMMARY VOLUMETRIC BUDGET FOR GSFLOW 
 DATE: 01 26 1984              CUMULATIVE TIME STEP:    1213
 MODFLOW STRESS PERIOD      2     CURRENT TIME STEP:    1212     ITERATIONS:       9

 -----------------------------------------------------------------------------------

   CUMULATIVE VOLUMES               L**3   RATES FOR THIS TIME STEP           L**3/T
   ------------------                      ------------------------

                                     IN                                         IN
                                     --                                         --
        PRECIPITATION =        1.0194D+07          PRECIPITATION =                  
           STREAMFLOW =                               STREAMFLOW =                  
     GW BOUNDARY FLOW =                         GW BOUNDARY FLOW =                  
                WELLS =           1256.34                  WELLS =             23.78


                                    OUT                                        OUT
                                    ---                                        ---
   EVAPOTRANSPIRATION =         940718.77     EVAPOTRANSPIRATION =          28248.99
           STREAMFLOW =        1036878.06             STREAMFLOW =          14832.38
     GW BOUNDARY FLOW =          40284.10       GW BOUNDARY FLOW =            718.55
                WELLS =          51045.74                  WELLS =            892.39

   INFLOWS - OUTFLOWS =        8126814.11     INFLOWS - OUTFLOWS =         -44668.53
             --------                                   --------

 TOTAL STORAGE CHANGE =        8126885.59         STORAGE CHANGE =         -44668.57
       --------------                             --------------
         LAND SURFACE =        8689373.41           LAND SURFACE =         -28248.99
            SOIL ZONE =          -1363.37              SOIL ZONE =          -6241.37
     UNSATURATED ZONE =         -42319.11       UNSATURATED ZONE =           -823.59
       SATURATED ZONE =        -518805.34         SATURATED ZONE =          -9354.62

 OVERALL BUDGET ERROR =            -71.48           BUDGET ERROR =              0.04


  PERCENT DISCREPANCY =             -0.00    PERCENT DISCREPANCY =              0.00



