

                           U.S. Geological Survey
         Coupled Groundwater and Surface-water FLOW model (GSFLOW)
                          Version 1.2.0 08/21/2015

     An integration of the Precipitation-Runoff Modeling System (PRMS)
     and the Modular Groundwater Model (MODFLOW-NWT and MODFLOW-2005)



                         U.S. Geological Survey
               Precipitation-Runoff Modeling System (PRMS)
               Version 4.0.1 03/15/2015 Tag: 633 2015-09-11


        Groundwater, streams, lakes and wells simulated by MODFLOW
              Based on MODFLOW-NWT  Version: 1.11.0 08/08/2013
                   and MODFLOW-2005 Version: 1.0.9 07/01/2014
              Processes: GWF and OBS
              Packages:  BAS, BCF, CHD, DE4, FHB, GAG, GHB,
                         HFB, HUF, LAK LPF, MNW1, MNW2, NWT,
                         PCG, GMG, SFR, SIP, UPW, UZF, WEL

The following modules are available:

     Process                   Modules
--------------------------------------------------------------------------
  Basin Definition: basin
    Cascading Flow: cascade
  Time Series Data: obs
   Potet Solar Rad: soltab
  Temperature Dist: temp_1sta, temp_laps, temp_dist2, climate_hru
       Precip Dist: precip_1sta, precip_laps, precip_dist2,
                    climate_hru
Temp & Precip Dist: xyz_dist, ide_dist
    Solar Rad Dist: ccsolrad, ddsolrad, climate_hru
Transpiration Dist: transp_tindex, climate_hru, transp_frost
      Potential ET: potet_hamon, potet_jh, potet_pan, climate_hru,
                    potet_hs, potet_pt, potet_pm
      Interception: intcp
     Snow Dynamics: snowcomp
    Surface Runoff: srunoff_smidx, srunoff_carea
         Soil Zone: soilzone
       Groundwater: gwflow
Streamflow Routing: strmflow, strmflow_in_out, muskingum
    Output Summary: basin_sum, subbasin, map_results, nhru_summary
     Preprocessing: write_climate_hru, frost_date
--------------------------------------------------------------------------
GSFLOW Computation Order     gsflow_prms.f90, version: 7633 2015-09-11 22:17:53Z
Basin Definition             basin.f90, version: 7588 2015-08-18 22:58:42Z
Cascading Flow               cascade.f90, version: 7588 2015-08-18 22:58:42Z
Common States and Fluxes     climateflow.f90, version: 7588 2015-08-18 22:58:42Z
Potential Solar Radiation    soltab.f90, version: 7563 2015-08-04 20:04:22Z
PRMS Set Time Variables      prms_time.f90, version: 7430 2015-06-10 21:09:20Z
Time Series Data             obs.f90, version: 7488 2015-07-16 23:25:44Z
Temperature Distribution     climate_hru.f90, version: 7588 2015-08-18 22:58:42Z
Precipitation Distribution   climate_hru.f90, version: 7588 2015-08-18 22:58:42Z
Solar Radiation Distribution ddsolrad.f90, version: 7530 2015-07-29 22:33:42Z
Transpiration Distribution   transp_tindex.f90, version: 7117 2015-01-06 00:28:20Z
Potential Evapotranspiration potet_jh.f90, version: 7525 2015-07-28 19:39:43Z
Canopy Interception          intcp.f90, version: 7588 2015-08-18 22:58:42Z
Snow Dynamics                snowcomp.f90, version: 7563 2015-08-04 20:04:22Z
Surface Runoff               srunoff_smidx.f90, version: 7588 2015-08-18 22:58:42Z
Soil Zone Computations       soilzone.f90, version: 7588 2015-08-18 22:58:42Z
GSFLOW PRMS to MODFLOW       gsflow_prms2mf.f90, version: 7562 2015-08-04 20:02:18Z
GSFLOW MODFLOW to PRMS       gsflow_mf2prms.f90, version: 7535 2015-07-29 22:37:29Z
GSFLOW Output Budget Summary gsflow_budget.f90, version: 7508 2015-07-23 22:15:56Z
GSFLOW Output CSV Summary    gsflow_sum.f90, version: 7589 2015-08-19 17:03:25Z
Output Summary               subbasin.f90, version: 7432 2015-06-10 21:50:54Z
GSFLOW MODFLOW main          gsflow_modflow.f, version: 7595 2015-09-01 15:01:38Z
MODFLOW UZF-NWT Package      gwf2uzf1_NWT.f, version: 7578 2015-08-11 15:14:00Z
MODFLOW SFR-NWT Package      gwf2sfr7_NWT.f, version: 7541 2015-07-30 21:46:59Z

$Id: gwf2uzf1_NWT.f 7578 2015-08-11 15:14:00Z rniswon $         
$Id: gwf2sfr7_NWT.f 7541 2015-07-30 21:46:59Z rniswon $         

$Id: gsflow_prms.f90 7633 2015-09-11 22:17:53Z rsregan $                        

Using NAME file: ../input/modflow/sagehen_15.nam 

Using Solver Package: NWT

Run start date and time (yyyy/mm/dd hh:mm:ss): 2015/09/28 16:00:35

 Percentage difference between cell mapping:  5.57529430327495641E-007
 Number of active cells:        3389

Simulation time period: 1983/12/02 - 1984/01/30

Using Control File: ./gsflow.control

Writing PRMS Water Budget File: ../output/prms/prms15.out

Simulation time period: 1983/12/02 - 1984/01/30

 szconverge =  9.99999975E-05 mxsziter =         500 mnsziter =         500
 Tolerance check for gvr_hru_pct:  5.00000000000000041E-006
 Percent difference between GVR mapping and active model domain: -0.11102230D-13


Water Budget print frequency is:   7


Writing GSFLOW Water Budget File: ../output/gsflow_15.out

Writing GSFLOW CSV File: ../output/gsflow_15.csv
Date: 1983/12/02; Stress:  2; Step:  1157; Simulation step: 1158
                  MF iterations:        8; SZ iterations:      8

Date: 1983/12/03; Stress:  2; Step:  1158; Simulation step: 1159
                  MF iterations:        8; SZ iterations:      8

Date: 1983/12/04; Stress:  2; Step:  1159; Simulation step: 1160
                  MF iterations:       19; SZ iterations:     19

Date: 1983/12/05; Stress:  2; Step:  1160; Simulation step: 1161
                  MF iterations:        8; SZ iterations:      8

Date: 1983/12/06; Stress:  2; Step:  1161; Simulation step: 1162
                  MF iterations:        8; SZ iterations:      8

Date: 1983/12/07; Stress:  2; Step:  1162; Simulation step: 1163
                  MF iterations:        8; SZ iterations:      8

Date: 1983/12/08; Stress:  2; Step:  1163; Simulation step: 1164
                  MF iterations:       10; SZ iterations:     10

Date: 1983/12/09; Stress:  2; Step:  1164; Simulation step: 1165
                  MF iterations:        8; SZ iterations:      8

Date: 1983/12/10; Stress:  2; Step:  1165; Simulation step: 1166
                  MF iterations:        8; SZ iterations:      8

Date: 1983/12/11; Stress:  2; Step:  1166; Simulation step: 1167
                  MF iterations:       10; SZ iterations:     10

Date: 1983/12/12; Stress:  2; Step:  1167; Simulation step: 1168
                  MF iterations:       14; SZ iterations:     14

Date: 1983/12/13; Stress:  2; Step:  1168; Simulation step: 1169
                  MF iterations:        9; SZ iterations:      9

Date: 1983/12/14; Stress:  2; Step:  1169; Simulation step: 1170
                  MF iterations:        9; SZ iterations:      9

Date: 1983/12/15; Stress:  2; Step:  1170; Simulation step: 1171
                  MF iterations:        9; SZ iterations:      9

Date: 1983/12/16; Stress:  2; Step:  1171; Simulation step: 1172
                  MF iterations:        9; SZ iterations:      9

Date: 1983/12/17; Stress:  2; Step:  1172; Simulation step: 1173
                  MF iterations:        9; SZ iterations:      9

Date: 1983/12/18; Stress:  2; Step:  1173; Simulation step: 1174
                  MF iterations:        9; SZ iterations:      9

Date: 1983/12/19; Stress:  2; Step:  1174; Simulation step: 1175
                  MF iterations:        9; SZ iterations:      9

Date: 1983/12/20; Stress:  2; Step:  1175; Simulation step: 1176
                  MF iterations:        9; SZ iterations:      9

Date: 1983/12/21; Stress:  2; Step:  1176; Simulation step: 1177
                  MF iterations:        8; SZ iterations:      8

Date: 1983/12/22; Stress:  2; Step:  1177; Simulation step: 1178
                  MF iterations:        9; SZ iterations:      9

Date: 1983/12/23; Stress:  2; Step:  1178; Simulation step: 1179
                  MF iterations:        8; SZ iterations:      8

Date: 1983/12/24; Stress:  2; Step:  1179; Simulation step: 1180
                  MF iterations:        8; SZ iterations:      8

Date: 1983/12/25; Stress:  2; Step:  1180; Simulation step: 1181
                  MF iterations:        8; SZ iterations:      8

Date: 1983/12/26; Stress:  2; Step:  1181; Simulation step: 1182
                  MF iterations:        8; SZ iterations:      8

Date: 1983/12/27; Stress:  2; Step:  1182; Simulation step: 1183
                  MF iterations:        8; SZ iterations:      8

Date: 1983/12/28; Stress:  2; Step:  1183; Simulation step: 1184
                  MF iterations:        8; SZ iterations:      8

Date: 1983/12/29; Stress:  2; Step:  1184; Simulation step: 1185
                  MF iterations:        9; SZ iterations:      9

Date: 1983/12/30; Stress:  2; Step:  1185; Simulation step: 1186
                  MF iterations:       18; SZ iterations:     18

Date: 1983/12/31; Stress:  2; Step:  1186; Simulation step: 1187
                  MF iterations:        8; SZ iterations:      8

Date: 1984/01/01; Stress:  2; Step:  1187; Simulation step: 1188
                  MF iterations:        9; SZ iterations:      9

Date: 1984/01/02; Stress:  2; Step:  1188; Simulation step: 1189
                  MF iterations:        8; SZ iterations:      8

Date: 1984/01/03; Stress:  2; Step:  1189; Simulation step: 1190
                  MF iterations:        9; SZ iterations:      9

Date: 1984/01/04; Stress:  2; Step:  1190; Simulation step: 1191
                  MF iterations:        9; SZ iterations:      9

Date: 1984/01/05; Stress:  2; Step:  1191; Simulation step: 1192
                  MF iterations:        8; SZ iterations:      8

Date: 1984/01/06; Stress:  2; Step:  1192; Simulation step: 1193
                  MF iterations:       15; SZ iterations:     15

Date: 1984/01/07; Stress:  2; Step:  1193; Simulation step: 1194
                  MF iterations:       25; SZ iterations:     25

Date: 1984/01/08; Stress:  2; Step:  1194; Simulation step: 1195
                  MF iterations:       17; SZ iterations:     17

Date: 1984/01/09; Stress:  2; Step:  1195; Simulation step: 1196
                  MF iterations:        9; SZ iterations:      9

Date: 1984/01/10; Stress:  2; Step:  1196; Simulation step: 1197
                  MF iterations:        9; SZ iterations:      9

Date: 1984/01/11; Stress:  2; Step:  1197; Simulation step: 1198
                  MF iterations:        9; SZ iterations:      9

Date: 1984/01/12; Stress:  2; Step:  1198; Simulation step: 1199
                  MF iterations:        9; SZ iterations:      9

Date: 1984/01/13; Stress:  2; Step:  1199; Simulation step: 1200
                  MF iterations:        9; SZ iterations:      9

Date: 1984/01/14; Stress:  2; Step:  1200; Simulation step: 1201
                  MF iterations:        9; SZ iterations:      9

Date: 1984/01/15; Stress:  2; Step:  1201; Simulation step: 1202
                  MF iterations:        9; SZ iterations:      9

Date: 1984/01/16; Stress:  2; Step:  1202; Simulation step: 1203
                  MF iterations:        9; SZ iterations:      9

Date: 1984/01/17; Stress:  2; Step:  1203; Simulation step: 1204
                  MF iterations:        9; SZ iterations:      9

Date: 1984/01/18; Stress:  2; Step:  1204; Simulation step: 1205
                  MF iterations:        9; SZ iterations:      9

Date: 1984/01/19; Stress:  2; Step:  1205; Simulation step: 1206
                  MF iterations:        9; SZ iterations:      9

Date: 1984/01/20; Stress:  2; Step:  1206; Simulation step: 1207
                  MF iterations:       21; SZ iterations:     21

Date: 1984/01/21; Stress:  2; Step:  1207; Simulation step: 1208
                  MF iterations:       18; SZ iterations:     18

Date: 1984/01/22; Stress:  2; Step:  1208; Simulation step: 1209
                  MF iterations:        9; SZ iterations:      9

Date: 1984/01/23; Stress:  2; Step:  1209; Simulation step: 1210
                  MF iterations:       17; SZ iterations:     17

Date: 1984/01/24; Stress:  2; Step:  1210; Simulation step: 1211
                  MF iterations:        9; SZ iterations:      9

Date: 1984/01/25; Stress:  2; Step:  1211; Simulation step: 1212
                  MF iterations:        9; SZ iterations:      9

Date: 1984/01/26; Stress:  2; Step:  1212; Simulation step: 1213
                  MF iterations:        9; SZ iterations:      9

Date: 1984/01/27; Stress:  2; Step:  1213; Simulation step: 1214
                  MF iterations:       13; SZ iterations:     13

Date: 1984/01/28; Stress:  2; Step:  1214; Simulation step: 1215
                  MF iterations:        9; SZ iterations:      9

Date: 1984/01/29; Stress:  2; Step:  1215; Simulation step: 1216
                  MF iterations:        9; SZ iterations:      9

Date: 1984/01/30; Stress:  2; Step:  1216; Simulation step: 1217
                  MF iterations:        9; SZ iterations:      9




 Run end date and time (yyyy/mm/dd hh:mm:ss): 2015/09/28 16:03:06

 Elapsed run time:  2 Minutes, 30.810 Seconds

 Number of time steps:     60;  Number of non-convergence:   0
 MF iterations:           612;  SZ iterations:             612
 Average MF iterations: 10.20;  Average SZ iterations:   10.20
 Maximum MF iterations:    25;  Maximum SZ iterations:      25

MF iteration distribution:      0    0    0    0    0    0    0   17   31    2
                                0    0    1    1    1    0    2    2    1    0
                                1    0    0    0    1    0    0    0    0    0
                                0    0    0    0    0    0    0    0    0    0
                                0    0    0    0    0    0    0    0    0    0
                                0    0    0    0    0    0    0    0    0    0
                                0    0    0    0    0    0    0    0    0    0
                                0    0    0    0    0    0    0    0    0    0



SZ computation distribution:    0    0    0    0    0    0    0   17   31    2
                                0    0    1    1    1    0    2    2    1    0
                                1    0    0    0    1    0    0    0    0    0
                                0    0    0    0    0    0    0    0    0    0
                                0    0    0    0    0    0    0    0    0    0
                                0    0    0    0    0    0    0    0    0    0
                                0    0    0    0    0    0    0    0    0    0
                                0    0    0    0    0    0    0    0    0    0



  Normal termination of simulation
