1
 SUMMARY VOLUMETRIC BUDGET FOR GSFLOW 
 DATE: 11 10 1983              CUMULATIVE TIME STEP:    1136
 MODFLOW STRESS PERIOD      2     CURRENT TIME STEP:    1135     ITERATIONS:       9

 -----------------------------------------------------------------------------------

   CUMULATIVE VOLUMES               L**3   RATES FOR THIS TIME STEP           L**3/T
   ------------------                      ------------------------

                                     IN                                         IN
                                     --                                         --
        PRECIPITATION =        1961472.48          PRECIPITATION =        1338149.95
           STREAMFLOW =                               STREAMFLOW =                  
     GW BOUNDARY FLOW =                         GW BOUNDARY FLOW =                  
                WELLS =            184.44                  WELLS =             25.80


                                    OUT                                        OUT
                                    ---                                        ---
   EVAPOTRANSPIRATION =         195826.12     EVAPOTRANSPIRATION =          16472.16
           STREAMFLOW =         310709.23             STREAMFLOW =          89859.49
     GW BOUNDARY FLOW =           5051.53       GW BOUNDARY FLOW =            723.82
                WELLS =           3508.53                  WELLS =            499.54

   INFLOWS - OUTFLOWS =        1446561.51     INFLOWS - OUTFLOWS =        1230620.74
             --------                                   --------

 TOTAL STORAGE CHANGE =        1446578.68         STORAGE CHANGE =        1230623.24
       --------------                             --------------
         LAND SURFACE =         661135.68           LAND SURFACE =        1036800.81
            SOIL ZONE =         827870.70              SOIL ZONE =         192956.80
     UNSATURATED ZONE =           7939.85       UNSATURATED ZONE =           6959.94
       SATURATED ZONE =         -50367.55         SATURATED ZONE =          -6094.31

 OVERALL BUDGET ERROR =            -17.17           BUDGET ERROR =             -2.50


  PERCENT DISCREPANCY =             -0.00    PERCENT DISCREPANCY =             -0.00



