1
 SUMMARY VOLUMETRIC BUDGET FOR GSFLOW 
 DATE: 11 03 1983              CUMULATIVE TIME STEP:    1129
 MODFLOW STRESS PERIOD      2     CURRENT TIME STEP:    1128     ITERATIONS:       9

 -----------------------------------------------------------------------------------

   CUMULATIVE VOLUMES               L**3   RATES FOR THIS TIME STEP           L**3/T
   ------------------                      ------------------------

                                     IN                                         IN
                                     --                                         --
        PRECIPITATION =        2356166.79          PRECIPITATION =                  
           STREAMFLOW =                               STREAMFLOW =                  
     GW BOUNDARY FLOW =                         GW BOUNDARY FLOW =                  
                WELLS =            193.06                  WELLS =             27.05


                                    OUT                                        OUT
                                    ---                                        ---
   EVAPOTRANSPIRATION =         228894.33     EVAPOTRANSPIRATION =          63501.78
           STREAMFLOW =          93484.24             STREAMFLOW =          22350.70
     GW BOUNDARY FLOW =           5029.04       GW BOUNDARY FLOW =            719.57
                WELLS =           3539.19                  WELLS =            503.57

   INFLOWS - OUTFLOWS =        2025413.06     INFLOWS - OUTFLOWS =         -87048.57
             --------                                   --------

 TOTAL STORAGE CHANGE =        2025430.24         STORAGE CHANGE =         -87046.24
       --------------                             --------------
         LAND SURFACE =         971635.98           LAND SURFACE =        -249923.53
            SOIL ZONE =        1144269.04              SOIL ZONE =         174103.87
     UNSATURATED ZONE =         -31457.84       UNSATURATED ZONE =          -3327.09
       SATURATED ZONE =         -59016.94         SATURATED ZONE =          -7899.50

 OVERALL BUDGET ERROR =            -17.18           BUDGET ERROR =             -2.33


  PERCENT DISCREPANCY =             -0.00    PERCENT DISCREPANCY =             -0.00



