1
 SUMMARY VOLUMETRIC BUDGET FOR GSFLOW 
 DATE: 09 15 1983              CUMULATIVE TIME STEP:    1080
 MODFLOW STRESS PERIOD      2     CURRENT TIME STEP:    1079     ITERATIONS:      10

 -----------------------------------------------------------------------------------

   CUMULATIVE VOLUMES               L**3   RATES FOR THIS TIME STEP           L**3/T
   ------------------                      ------------------------

                                     IN                                         IN
                                     --                                         --
        PRECIPITATION =                            PRECIPITATION =                  
           STREAMFLOW =                               STREAMFLOW =                  
     GW BOUNDARY FLOW =                         GW BOUNDARY FLOW =                  
                WELLS =            175.91                  WELLS =             25.02


                                    OUT                                        OUT
                                    ---                                        ---
   EVAPOTRANSPIRATION =         367018.14     EVAPOTRANSPIRATION =          46282.14
           STREAMFLOW =          49031.58             STREAMFLOW =           6324.58
     GW BOUNDARY FLOW =           5013.36       GW BOUNDARY FLOW =            715.97
                WELLS =           6555.63                  WELLS =            923.77

   INFLOWS - OUTFLOWS =        -427442.79     INFLOWS - OUTFLOWS =         -54221.44
             --------                                   --------

 TOTAL STORAGE CHANGE =        -427430.19         STORAGE CHANGE =         -54219.48
       --------------                             --------------
         LAND SURFACE =        -131637.77           LAND SURFACE =         -16146.05
            SOIL ZONE =        -195142.14              SOIL ZONE =         -23347.69
     UNSATURATED ZONE =         -38775.20       UNSATURATED ZONE =          -5811.30
       SATURATED ZONE =         -61875.08         SATURATED ZONE =          -8914.43

 OVERALL BUDGET ERROR =            -12.60           BUDGET ERROR =             -1.96


  PERCENT DISCREPANCY =             -0.00    PERCENT DISCREPANCY =             -0.00



