1
 SUMMARY VOLUMETRIC BUDGET FOR GSFLOW 
 DATE: 10 07 1980              CUMULATIVE TIME STEP:       7
 MODFLOW STRESS PERIOD      2     CURRENT TIME STEP:       7     ITERATIONS:      10

 -----------------------------------------------------------------------------------

   CUMULATIVE VOLUMES               L**3   RATES FOR THIS TIME STEP           L**3/T
   ------------------                      ------------------------

                                     IN                                         IN
                                     --                                         --
        PRECIPITATION =                            PRECIPITATION =                  
           STREAMFLOW =                               STREAMFLOW =                  
     GW BOUNDARY FLOW =                         GW BOUNDARY FLOW =                  
                WELLS =              2.61                  WELLS =              0.38


                                    OUT                                        OUT
                                    ---                                        ---
   EVAPOTRANSPIRATION =          66255.21     EVAPOTRANSPIRATION =           9365.96
           STREAMFLOW =          40890.25             STREAMFLOW =           5688.54
     GW BOUNDARY FLOW =           5067.54       GW BOUNDARY FLOW =            723.82
                WELLS =          16940.66                  WELLS =           2303.51

   INFLOWS - OUTFLOWS =        -129151.06     INFLOWS - OUTFLOWS =         -18081.46
             --------                                   --------

 TOTAL STORAGE CHANGE =        -128927.65         STORAGE CHANGE =         -18050.29
       --------------                             --------------
         LAND SURFACE =                             LAND SURFACE =                  
            SOIL ZONE =          43743.64              SOIL ZONE =           6238.03
     UNSATURATED ZONE =        -144187.06       UNSATURATED ZONE =         -20266.32
       SATURATED ZONE =         -28484.22         SATURATED ZONE =          -4022.00

 OVERALL BUDGET ERROR =           -223.41           BUDGET ERROR =            -31.16


  PERCENT DISCREPANCY =             -0.17    PERCENT DISCREPANCY =             -0.17



1
 SUMMARY VOLUMETRIC BUDGET FOR GSFLOW 
 DATE: 10 14 1980              CUMULATIVE TIME STEP:      14
 MODFLOW STRESS PERIOD      2     CURRENT TIME STEP:      14     ITERATIONS:      11

 -----------------------------------------------------------------------------------

   CUMULATIVE VOLUMES               L**3   RATES FOR THIS TIME STEP           L**3/T
   ------------------                      ------------------------

                                     IN                                         IN
                                     --                                         --
        PRECIPITATION =         403289.47          PRECIPITATION =         174040.42
           STREAMFLOW =                               STREAMFLOW =                  
     GW BOUNDARY FLOW =                         GW BOUNDARY FLOW =                  
                WELLS =              5.25                  WELLS =              0.38


                                    OUT                                        OUT
                                    ---                                        ---
   EVAPOTRANSPIRATION =         143347.24     EVAPOTRANSPIRATION =           5462.50
           STREAMFLOW =          84320.29             STREAMFLOW =           6976.52
     GW BOUNDARY FLOW =          10134.18       GW BOUNDARY FLOW =            723.90
                WELLS =          32362.84                  WELLS =           2136.36

   INFLOWS - OUTFLOWS =         133130.16     INFLOWS - OUTFLOWS =         158741.51
             --------                                   --------

 TOTAL STORAGE CHANGE =         133564.92         STORAGE CHANGE =         158771.06
       --------------                             --------------
         LAND SURFACE =         150822.63           LAND SURFACE =         106712.03
            SOIL ZONE =         322715.97              SOIL ZONE =          75648.62
     UNSATURATED ZONE =        -282947.18       UNSATURATED ZONE =         -19478.30
       SATURATED ZONE =         -57026.49         SATURATED ZONE =          -4111.28

 OVERALL BUDGET ERROR =           -434.76           BUDGET ERROR =            -29.55


  PERCENT DISCREPANCY =             -0.11    PERCENT DISCREPANCY =             -0.02



1
 SUMMARY VOLUMETRIC BUDGET FOR GSFLOW 
 DATE: 10 21 1980              CUMULATIVE TIME STEP:      21
 MODFLOW STRESS PERIOD      2     CURRENT TIME STEP:      21     ITERATIONS:      11

 -----------------------------------------------------------------------------------

   CUMULATIVE VOLUMES               L**3   RATES FOR THIS TIME STEP           L**3/T
   ------------------                      ------------------------

                                     IN                                         IN
                                     --                                         --
        PRECIPITATION =         704278.11          PRECIPITATION =                  
           STREAMFLOW =                               STREAMFLOW =                  
     GW BOUNDARY FLOW =                         GW BOUNDARY FLOW =                  
                WELLS =             85.13                  WELLS =             17.89


                                    OUT                                        OUT
                                    ---                                        ---
   EVAPOTRANSPIRATION =         370203.59     EVAPOTRANSPIRATION =          46152.85
           STREAMFLOW =         133857.75             STREAMFLOW =           6934.55
     GW BOUNDARY FLOW =          15201.53       GW BOUNDARY FLOW =            723.91
                WELLS =          45096.26                  WELLS =           1174.41

   INFLOWS - OUTFLOWS =         140004.11     INFLOWS - OUTFLOWS =         -54967.83
             --------                                   --------

 TOTAL STORAGE CHANGE =         140638.57         STORAGE CHANGE =         -54940.23
       --------------                             --------------
         LAND SURFACE =           4707.67           LAND SURFACE =          -7723.11
            SOIL ZONE =         637761.70              SOIL ZONE =         -24673.00
     UNSATURATED ZONE =        -416143.58       UNSATURATED ZONE =         -18669.63
       SATURATED ZONE =         -85687.22         SATURATED ZONE =          -3874.49

 OVERALL BUDGET ERROR =           -634.46           BUDGET ERROR =            -27.60


  PERCENT DISCREPANCY =             -0.09    PERCENT DISCREPANCY =             -0.05



1
 SUMMARY VOLUMETRIC BUDGET FOR GSFLOW 
 DATE: 10 28 1980              CUMULATIVE TIME STEP:      28
 MODFLOW STRESS PERIOD      2     CURRENT TIME STEP:      28     ITERATIONS:      11

 -----------------------------------------------------------------------------------

   CUMULATIVE VOLUMES               L**3   RATES FOR THIS TIME STEP           L**3/T
   ------------------                      ------------------------

                                     IN                                         IN
                                     --                                         --
        PRECIPITATION =         893052.32          PRECIPITATION =                  
           STREAMFLOW =                               STREAMFLOW =                  
     GW BOUNDARY FLOW =                         GW BOUNDARY FLOW =                  
                WELLS =             87.78                  WELLS =              0.38


                                    OUT                                        OUT
                                    ---                                        ---
   EVAPOTRANSPIRATION =         561606.85     EVAPOTRANSPIRATION =          26660.61
           STREAMFLOW =         180975.95             STREAMFLOW =           6927.86
     GW BOUNDARY FLOW =          20267.95       GW BOUNDARY FLOW =            723.77
                WELLS =          58701.16                  WELLS =           1929.81

   INFLOWS - OUTFLOWS =          71588.19     INFLOWS - OUTFLOWS =         -36241.68
             --------                                   --------

 TOTAL STORAGE CHANGE =          72409.49         STORAGE CHANGE =         -36215.56
       --------------                             --------------
         LAND SURFACE =          19525.56           LAND SURFACE =         -38596.10
            SOIL ZONE =         716473.28              SOIL ZONE =          25326.77
     UNSATURATED ZONE =        -543549.53       UNSATURATED ZONE =         -17894.11
       SATURATED ZONE =        -120039.82         SATURATED ZONE =          -5052.12

 OVERALL BUDGET ERROR =           -821.30           BUDGET ERROR =            -26.12


  PERCENT DISCREPANCY =             -0.09    PERCENT DISCREPANCY =             -0.07



1
 SUMMARY VOLUMETRIC BUDGET FOR GSFLOW 
 DATE: 11 04 1980              CUMULATIVE TIME STEP:      35
 MODFLOW STRESS PERIOD      2     CURRENT TIME STEP:      35     ITERATIONS:      11

 -----------------------------------------------------------------------------------

   CUMULATIVE VOLUMES               L**3   RATES FOR THIS TIME STEP           L**3/T
   ------------------                      ------------------------

                                     IN                                         IN
                                     --                                         --
        PRECIPITATION =         893052.32          PRECIPITATION =                  
           STREAMFLOW =                               STREAMFLOW =                  
     GW BOUNDARY FLOW =                         GW BOUNDARY FLOW =                  
                WELLS =            152.40                  WELLS =              0.38


                                    OUT                                        OUT
                                    ---                                        ---
   EVAPOTRANSPIRATION =         827880.42     EVAPOTRANSPIRATION =          40339.26
           STREAMFLOW =         227371.41             STREAMFLOW =           6258.46
     GW BOUNDARY FLOW =          25333.77       GW BOUNDARY FLOW =            723.62
                WELLS =          70198.92                  WELLS =           1860.14

   INFLOWS - OUTFLOWS =        -257579.80     INFLOWS - OUTFLOWS =         -49181.09
             --------                                   --------

 TOTAL STORAGE CHANGE =        -256582.73         STORAGE CHANGE =         -49156.60
       --------------                             --------------
         LAND SURFACE =                             LAND SURFACE =                  
            SOIL ZONE =         565626.94              SOIL ZONE =         -26372.13
     UNSATURATED ZONE =        -665848.02       UNSATURATED ZONE =         -17178.40
       SATURATED ZONE =        -156361.65         SATURATED ZONE =          -5606.08

 OVERALL BUDGET ERROR =           -997.07           BUDGET ERROR =            -24.49


  PERCENT DISCREPANCY =             -0.09    PERCENT DISCREPANCY =             -0.05



1
 SUMMARY VOLUMETRIC BUDGET FOR GSFLOW 
 DATE: 11 11 1980              CUMULATIVE TIME STEP:      42
 MODFLOW STRESS PERIOD      2     CURRENT TIME STEP:      42     ITERATIONS:      11

 -----------------------------------------------------------------------------------

   CUMULATIVE VOLUMES               L**3   RATES FOR THIS TIME STEP           L**3/T
   ------------------                      ------------------------

                                     IN                                         IN
                                     --                                         --
        PRECIPITATION =        1445195.46          PRECIPITATION =         164672.55
           STREAMFLOW =                               STREAMFLOW =                  
     GW BOUNDARY FLOW =                         GW BOUNDARY FLOW =                  
                WELLS =            155.08                  WELLS =              0.38


                                    OUT                                        OUT
                                    ---                                        ---
   EVAPOTRANSPIRATION =        1059956.71     EVAPOTRANSPIRATION =          16588.99
           STREAMFLOW =         281546.92             STREAMFLOW =           9090.74
     GW BOUNDARY FLOW =          30400.12       GW BOUNDARY FLOW =            723.93
                WELLS =          82733.94                  WELLS =           1789.90

   INFLOWS - OUTFLOWS =          -9287.15     INFLOWS - OUTFLOWS =         136479.38
             --------                                   --------

 TOTAL STORAGE CHANGE =          -8123.66         STORAGE CHANGE =         136502.66
       --------------                             --------------
         LAND SURFACE =          69010.13           LAND SURFACE =          66606.95
            SOIL ZONE =         901394.87              SOIL ZONE =          91917.64
     UNSATURATED ZONE =        -783334.64       UNSATURATED ZONE =         -16474.65
       SATURATED ZONE =        -195194.02         SATURATED ZONE =          -5547.28

 OVERALL BUDGET ERROR =          -1163.49           BUDGET ERROR =            -23.28


  PERCENT DISCREPANCY =             -0.08    PERCENT DISCREPANCY =             -0.01



1
 SUMMARY VOLUMETRIC BUDGET FOR GSFLOW 
 DATE: 11 18 1980              CUMULATIVE TIME STEP:      49
 MODFLOW STRESS PERIOD      2     CURRENT TIME STEP:      49     ITERATIONS:      17

 -----------------------------------------------------------------------------------

   CUMULATIVE VOLUMES               L**3   RATES FOR THIS TIME STEP           L**3/T
   ------------------                      ------------------------

                                     IN                                         IN
                                     --                                         --
        PRECIPITATION =        1527531.73          PRECIPITATION =                  
           STREAMFLOW =                               STREAMFLOW =                  
     GW BOUNDARY FLOW =                         GW BOUNDARY FLOW =                  
                WELLS =            189.99                  WELLS =             32.60


                                    OUT                                        OUT
                                    ---                                        ---
   EVAPOTRANSPIRATION =        1166891.17     EVAPOTRANSPIRATION =          23721.23
           STREAMFLOW =         341346.15             STREAMFLOW =           8674.35
     GW BOUNDARY FLOW =          35467.87       GW BOUNDARY FLOW =            723.97
                WELLS =          94677.54                  WELLS =           1375.73

   INFLOWS - OUTFLOWS =        -110661.01     INFLOWS - OUTFLOWS =         -34462.67
             --------                                   --------

 TOTAL STORAGE CHANGE =        -109340.26         STORAGE CHANGE =         -34440.95
       --------------                             --------------
         LAND SURFACE =            700.96           LAND SURFACE =          -5282.99
            SOIL ZONE =        1022328.79              SOIL ZONE =          -7595.31
     UNSATURATED ZONE =        -895917.28       UNSATURATED ZONE =         -15796.90
       SATURATED ZONE =        -236452.73         SATURATED ZONE =          -5765.75

 OVERALL BUDGET ERROR =          -1320.74           BUDGET ERROR =            -21.72


  PERCENT DISCREPANCY =             -0.08    PERCENT DISCREPANCY =             -0.06



1
 SUMMARY VOLUMETRIC BUDGET FOR GSFLOW 
 DATE: 11 25 1980              CUMULATIVE TIME STEP:      56
 MODFLOW STRESS PERIOD      2     CURRENT TIME STEP:      56     ITERATIONS:      11

 -----------------------------------------------------------------------------------

   CUMULATIVE VOLUMES               L**3   RATES FOR THIS TIME STEP           L**3/T
   ------------------                      ------------------------

                                     IN                                         IN
                                     --                                         --
        PRECIPITATION =        1583878.73          PRECIPITATION =                  
           STREAMFLOW =                               STREAMFLOW =                  
     GW BOUNDARY FLOW =                         GW BOUNDARY FLOW =                  
                WELLS =            336.54                  WELLS =             20.78


                                    OUT                                        OUT
                                    ---                                        ---
   EVAPOTRANSPIRATION =        1275822.61     EVAPOTRANSPIRATION =          12836.12
           STREAMFLOW =         400601.39             STREAMFLOW =           8436.60
     GW BOUNDARY FLOW =          40535.49       GW BOUNDARY FLOW =            723.93
                WELLS =         104181.88                  WELLS =           1346.19

   INFLOWS - OUTFLOWS =        -236926.10     INFLOWS - OUTFLOWS =         -23322.06
             --------                                   --------

 TOTAL STORAGE CHANGE =        -235457.70         STORAGE CHANGE =         -23301.46
       --------------                             --------------
         LAND SURFACE =          41331.51           LAND SURFACE =         -13376.93
            SOIL ZONE =        1006549.39              SOIL ZONE =          11574.18
     UNSATURATED ZONE =       -1004244.75       UNSATURATED ZONE =         -15206.77
       SATURATED ZONE =        -279093.86         SATURATED ZONE =          -6291.94

 OVERALL BUDGET ERROR =          -1468.40           BUDGET ERROR =            -20.60


  PERCENT DISCREPANCY =             -0.08    PERCENT DISCREPANCY =             -0.09



1
 SUMMARY VOLUMETRIC BUDGET FOR GSFLOW 
 DATE: 12 02 1980              CUMULATIVE TIME STEP:      63
 MODFLOW STRESS PERIOD      2     CURRENT TIME STEP:      63     ITERATIONS:      11

 -----------------------------------------------------------------------------------

   CUMULATIVE VOLUMES               L**3   RATES FOR THIS TIME STEP           L**3/T
   ------------------                      ------------------------

                                     IN                                         IN
                                     --                                         --
        PRECIPITATION =        2084797.03          PRECIPITATION =         217997.75
           STREAMFLOW =                               STREAMFLOW =                  
     GW BOUNDARY FLOW =                         GW BOUNDARY FLOW =                  
                WELLS =            484.73                  WELLS =             21.44


                                    OUT                                        OUT
                                    ---                                        ---
   EVAPOTRANSPIRATION =        1434257.17     EVAPOTRANSPIRATION =           9909.91
           STREAMFLOW =         470119.03             STREAMFLOW =          11698.40
     GW BOUNDARY FLOW =          45604.15       GW BOUNDARY FLOW =            724.35
                WELLS =         113512.17                  WELLS =           1323.65

   INFLOWS - OUTFLOWS =          21789.24     INFLOWS - OUTFLOWS =         194362.88
             --------                                   --------

 TOTAL STORAGE CHANGE =          23395.81         STORAGE CHANGE =         194382.03
       --------------                             --------------
         LAND SURFACE =         279295.42           LAND SURFACE =         190220.62
            SOIL ZONE =        1175779.31              SOIL ZONE =          25009.64
     UNSATURATED ZONE =       -1108099.92       UNSATURATED ZONE =         -14453.45
       SATURATED ZONE =        -323579.00         SATURATED ZONE =          -6394.78

 OVERALL BUDGET ERROR =          -1606.57           BUDGET ERROR =            -19.15


  PERCENT DISCREPANCY =             -0.08    PERCENT DISCREPANCY =             -0.01



1
 SUMMARY VOLUMETRIC BUDGET FOR GSFLOW 
 DATE: 12 09 1980              CUMULATIVE TIME STEP:      70
 MODFLOW STRESS PERIOD      2     CURRENT TIME STEP:      70     ITERATIONS:      11

 -----------------------------------------------------------------------------------

   CUMULATIVE VOLUMES               L**3   RATES FOR THIS TIME STEP           L**3/T
   ------------------                      ------------------------

                                     IN                                         IN
                                     --                                         --
        PRECIPITATION =        3709398.40          PRECIPITATION =                  
           STREAMFLOW =                               STREAMFLOW =                  
     GW BOUNDARY FLOW =                         GW BOUNDARY FLOW =                  
                WELLS =            637.12                  WELLS =             22.00


                                    OUT                                        OUT
                                    ---                                        ---
   EVAPOTRANSPIRATION =        1471519.57     EVAPOTRANSPIRATION =          12841.84
           STREAMFLOW =         551800.35             STREAMFLOW =          12118.28
     GW BOUNDARY FLOW =          50675.40       GW BOUNDARY FLOW =            724.55
                WELLS =         122702.75                  WELLS =           1305.43

   INFLOWS - OUTFLOWS =        1513337.46     INFLOWS - OUTFLOWS =         -26968.09
             --------                                   --------

 TOTAL STORAGE CHANGE =        1515073.23         STORAGE CHANGE =         -26950.10
       --------------                             --------------
         LAND SURFACE =        1866133.18           LAND SURFACE =         -12841.84
            SOIL ZONE =        1226182.29              SOIL ZONE =           6651.92
     UNSATURATED ZONE =       -1207274.89       UNSATURATED ZONE =         -13980.96
       SATURATED ZONE =        -369967.34         SATURATED ZONE =          -6779.22

 OVERALL BUDGET ERROR =          -1735.77           BUDGET ERROR =            -17.99


  PERCENT DISCREPANCY =             -0.05    PERCENT DISCREPANCY =             -0.07



1
 SUMMARY VOLUMETRIC BUDGET FOR GSFLOW 
 DATE: 12 16 1980              CUMULATIVE TIME STEP:      77
 MODFLOW STRESS PERIOD      2     CURRENT TIME STEP:      77     ITERATIONS:      11

 -----------------------------------------------------------------------------------

   CUMULATIVE VOLUMES               L**3   RATES FOR THIS TIME STEP           L**3/T
   ------------------                      ------------------------

                                     IN                                         IN
                                     --                                         --
        PRECIPITATION =        3709398.40          PRECIPITATION =                  
           STREAMFLOW =                               STREAMFLOW =                  
     GW BOUNDARY FLOW =                         GW BOUNDARY FLOW =                  
                WELLS =            792.99                  WELLS =             22.45


                                    OUT                                        OUT
                                    ---                                        ---
   EVAPOTRANSPIRATION =        1683980.18     EVAPOTRANSPIRATION =          45947.82
           STREAMFLOW =         692471.77             STREAMFLOW =          37205.21
     GW BOUNDARY FLOW =          55751.86       GW BOUNDARY FLOW =            726.60
                WELLS =         131779.37                  WELLS =           1290.53

   INFLOWS - OUTFLOWS =        1146208.21     INFLOWS - OUTFLOWS =         -85147.71
             --------                                   --------

 TOTAL STORAGE CHANGE =        1148067.25         STORAGE CHANGE =         -85130.47
       --------------                             --------------
         LAND SURFACE =        1097394.69           LAND SURFACE =        -242595.26
            SOIL ZONE =        1765170.78              SOIL ZONE =         174768.63
     UNSATURATED ZONE =       -1298428.23       UNSATURATED ZONE =         -11420.10
       SATURATED ZONE =        -416069.99         SATURATED ZONE =          -5883.74

 OVERALL BUDGET ERROR =          -1859.04           BUDGET ERROR =            -17.25


  PERCENT DISCREPANCY =             -0.05    PERCENT DISCREPANCY =             -0.02



1
 SUMMARY VOLUMETRIC BUDGET FOR GSFLOW 
 DATE: 12 23 1980              CUMULATIVE TIME STEP:      84
 MODFLOW STRESS PERIOD      2     CURRENT TIME STEP:      84     ITERATIONS:      12

 -----------------------------------------------------------------------------------

   CUMULATIVE VOLUMES               L**3   RATES FOR THIS TIME STEP           L**3/T
   ------------------                      ------------------------

                                     IN                                         IN
                                     --                                         --
        PRECIPITATION =        3709398.40          PRECIPITATION =                  
           STREAMFLOW =                               STREAMFLOW =                  
     GW BOUNDARY FLOW =                         GW BOUNDARY FLOW =                  
                WELLS =            951.65                  WELLS =             22.83


                                    OUT                                        OUT
                                    ---                                        ---
   EVAPOTRANSPIRATION =        1911606.99     EVAPOTRANSPIRATION =          32126.51
           STREAMFLOW =         946503.02             STREAMFLOW =          29813.51
     GW BOUNDARY FLOW =          60845.76       GW BOUNDARY FLOW =            727.59
                WELLS =         140762.28                  WELLS =           1278.09

   INFLOWS - OUTFLOWS =         650632.01     INFLOWS - OUTFLOWS =         -63922.88
             --------                                   --------

 TOTAL STORAGE CHANGE =         652605.98         STORAGE CHANGE =         -63907.10
       --------------                             --------------
         LAND SURFACE =         399376.50           LAND SURFACE =         -51279.29
            SOIL ZONE =        2087291.31              SOIL ZONE =           4804.17
     UNSATURATED ZONE =       -1371156.94       UNSATURATED ZONE =         -10257.94
       SATURATED ZONE =        -462904.88         SATURATED ZONE =          -7174.04

 OVERALL BUDGET ERROR =          -1973.98           BUDGET ERROR =            -15.79


  PERCENT DISCREPANCY =             -0.05    PERCENT DISCREPANCY =             -0.02



1
 SUMMARY VOLUMETRIC BUDGET FOR GSFLOW 
 DATE: 12 30 1980              CUMULATIVE TIME STEP:      91
 MODFLOW STRESS PERIOD      2     CURRENT TIME STEP:      91     ITERATIONS:      12

 -----------------------------------------------------------------------------------

   CUMULATIVE VOLUMES               L**3   RATES FOR THIS TIME STEP           L**3/T
   ------------------                      ------------------------

                                     IN                                         IN
                                     --                                         --
        PRECIPITATION =        3709398.40          PRECIPITATION =                  
           STREAMFLOW =                               STREAMFLOW =                  
     GW BOUNDARY FLOW =                         GW BOUNDARY FLOW =                  
                WELLS =           1124.96                  WELLS =             27.15


                                    OUT                                        OUT
                                    ---                                        ---
   EVAPOTRANSPIRATION =        2270547.84     EVAPOTRANSPIRATION =          56329.85
           STREAMFLOW =        1130064.00             STREAMFLOW =          20565.43
     GW BOUNDARY FLOW =          65935.39       GW BOUNDARY FLOW =            726.51
                WELLS =         148588.05                  WELLS =            909.06

   INFLOWS - OUTFLOWS =          95388.09     INFLOWS - OUTFLOWS =         -78503.71
             --------                                   --------

 TOTAL STORAGE CHANGE =          97466.03         STORAGE CHANGE =         -78489.43
       --------------                             --------------
         LAND SURFACE =          46840.62           LAND SURFACE =         -16420.20
            SOIL ZONE =        2006293.27              SOIL ZONE =         -44017.78
     UNSATURATED ZONE =       -1441446.24       UNSATURATED ZONE =         -10383.35
       SATURATED ZONE =        -514221.61         SATURATED ZONE =          -7668.10

 OVERALL BUDGET ERROR =          -2077.94           BUDGET ERROR =            -14.28


  PERCENT DISCREPANCY =             -0.06    PERCENT DISCREPANCY =             -0.02



1
 SUMMARY VOLUMETRIC BUDGET FOR GSFLOW 
 DATE: 01 06 1981              CUMULATIVE TIME STEP:      98
 MODFLOW STRESS PERIOD      2     CURRENT TIME STEP:      98     ITERATIONS:      11

 -----------------------------------------------------------------------------------

   CUMULATIVE VOLUMES               L**3   RATES FOR THIS TIME STEP           L**3/T
   ------------------                      ------------------------

                                     IN                                         IN
                                     --                                         --
        PRECIPITATION =        3929400.55          PRECIPITATION =                  
           STREAMFLOW =                               STREAMFLOW =                  
     GW BOUNDARY FLOW =                         GW BOUNDARY FLOW =                  
                WELLS =           1313.34                  WELLS =             26.62


                                    OUT                                        OUT
                                    ---                                        ---
   EVAPOTRANSPIRATION =        2546814.19     EVAPOTRANSPIRATION =          31283.68
           STREAMFLOW =        1249687.39             STREAMFLOW =          16820.28
     GW BOUNDARY FLOW =          71015.92       GW BOUNDARY FLOW =            725.61
                WELLS =         154925.94                  WELLS =            902.66

   INFLOWS - OUTFLOWS =         -91729.55     INFLOWS - OUTFLOWS =         -49705.62
             --------                                   --------

 TOTAL STORAGE CHANGE =         -89554.52         STORAGE CHANGE =         -49692.38
       --------------                             --------------
         LAND SURFACE =          32663.34           LAND SURFACE =         -26441.91
            SOIL ZONE =        1965480.80              SOIL ZONE =          -4319.05
     UNSATURATED ZONE =       -1518477.89       UNSATURATED ZONE =         -10903.72
       SATURATED ZONE =        -569220.77         SATURATED ZONE =          -8027.70

 OVERALL BUDGET ERROR =          -2175.02           BUDGET ERROR =            -13.24


  PERCENT DISCREPANCY =             -0.05    PERCENT DISCREPANCY =             -0.03



1
 SUMMARY VOLUMETRIC BUDGET FOR GSFLOW 
 DATE: 01 13 1981              CUMULATIVE TIME STEP:     105
 MODFLOW STRESS PERIOD      2     CURRENT TIME STEP:     105     ITERATIONS:      11

 -----------------------------------------------------------------------------------

   CUMULATIVE VOLUMES               L**3   RATES FOR THIS TIME STEP           L**3/T
   ------------------                      ------------------------

                                     IN                                         IN
                                     --                                         --
        PRECIPITATION =        3929400.55          PRECIPITATION =                  
           STREAMFLOW =                               STREAMFLOW =                  
     GW BOUNDARY FLOW =                         GW BOUNDARY FLOW =                  
                WELLS =           1496.98                  WELLS =             25.95


                                    OUT                                        OUT
                                    ---                                        ---
   EVAPOTRANSPIRATION =        2807532.14     EVAPOTRANSPIRATION =          39183.45
           STREAMFLOW =        1352234.08             STREAMFLOW =          12585.62
     GW BOUNDARY FLOW =          76093.09       GW BOUNDARY FLOW =            725.01
                WELLS =         161221.00                  WELLS =            896.87

   INFLOWS - OUTFLOWS =        -466182.78     INFLOWS - OUTFLOWS =         -53364.99
             --------                                   --------

 TOTAL STORAGE CHANGE =        -463918.87         STORAGE CHANGE =         -53352.60
       --------------                             --------------
         LAND SURFACE =          18261.21           LAND SURFACE =           -714.57
            SOIL ZONE =        1742306.97              SOIL ZONE =         -32652.67
     UNSATURATED ZONE =       -1596061.76       UNSATURATED ZONE =         -11242.15
       SATURATED ZONE =        -628425.30         SATURATED ZONE =          -8743.20

 OVERALL BUDGET ERROR =          -2263.91           BUDGET ERROR =            -12.40


  PERCENT DISCREPANCY =             -0.05    PERCENT DISCREPANCY =             -0.02



1
 SUMMARY VOLUMETRIC BUDGET FOR GSFLOW 
 DATE: 01 20 1981              CUMULATIVE TIME STEP:     112
 MODFLOW STRESS PERIOD      2     CURRENT TIME STEP:     112     ITERATIONS:      12

 -----------------------------------------------------------------------------------

   CUMULATIVE VOLUMES               L**3   RATES FOR THIS TIME STEP           L**3/T
   ------------------                      ------------------------

                                     IN                                         IN
                                     --                                         --
        PRECIPITATION =        3934797.64          PRECIPITATION =                  
           STREAMFLOW =                               STREAMFLOW =                  
     GW BOUNDARY FLOW =                         GW BOUNDARY FLOW =                  
                WELLS =           1676.13                  WELLS =             25.33


                                    OUT                                        OUT
                                    ---                                        ---
   EVAPOTRANSPIRATION =        3080502.49     EVAPOTRANSPIRATION =          41920.90
           STREAMFLOW =        1425189.09             STREAMFLOW =           9140.46
     GW BOUNDARY FLOW =          81165.78       GW BOUNDARY FLOW =            724.43
                WELLS =         167478.28                  WELLS =            891.76

   INFLOWS - OUTFLOWS =        -817861.87     INFLOWS - OUTFLOWS =         -52652.22
             --------                                   --------

 TOTAL STORAGE CHANGE =        -815514.16         STORAGE CHANGE =         -52640.58
       --------------                             --------------
         LAND SURFACE =          12398.03           LAND SURFACE =          -1490.72
            SOIL ZONE =        1537581.20              SOIL ZONE =         -30991.39
     UNSATURATED ZONE =       -1674071.14       UNSATURATED ZONE =         -11013.17
       SATURATED ZONE =        -691422.26         SATURATED ZONE =          -9145.29

 OVERALL BUDGET ERROR =          -2347.71           BUDGET ERROR =            -11.64


  PERCENT DISCREPANCY =             -0.05    PERCENT DISCREPANCY =             -0.02



1
 SUMMARY VOLUMETRIC BUDGET FOR GSFLOW 
 DATE: 01 27 1981              CUMULATIVE TIME STEP:     119
 MODFLOW STRESS PERIOD      2     CURRENT TIME STEP:     119     ITERATIONS:      12

 -----------------------------------------------------------------------------------

   CUMULATIVE VOLUMES               L**3   RATES FOR THIS TIME STEP           L**3/T
   ------------------                      ------------------------

                                     IN                                         IN
                                     --                                         --
        PRECIPITATION =        6080782.22          PRECIPITATION =        1101441.08
           STREAMFLOW =                               STREAMFLOW =                  
     GW BOUNDARY FLOW =                         GW BOUNDARY FLOW =                  
                WELLS =           1849.29                  WELLS =             23.90


                                    OUT                                        OUT
                                    ---                                        ---
   EVAPOTRANSPIRATION =        3235030.52     EVAPOTRANSPIRATION =          10796.47
           STREAMFLOW =        1498359.78             STREAMFLOW =          11292.32
     GW BOUNDARY FLOW =          86237.07       GW BOUNDARY FLOW =            724.56
                WELLS =         173702.90                  WELLS =            887.54

   INFLOWS - OUTFLOWS =        1089301.24     INFLOWS - OUTFLOWS =        1077764.09
             --------                                   --------

 TOTAL STORAGE CHANGE =        1091726.47         STORAGE CHANGE =        1077774.63
       --------------                             --------------
         LAND SURFACE =        1935684.77           LAND SURFACE =        1090644.60
            SOIL ZONE =        1660522.62              SOIL ZONE =           6871.47
     UNSATURATED ZONE =       -1748383.48       UNSATURATED ZONE =         -10415.44
       SATURATED ZONE =        -756097.44         SATURATED ZONE =          -9326.01

 OVERALL BUDGET ERROR =          -2425.23           BUDGET ERROR =            -10.54


  PERCENT DISCREPANCY =             -0.04    PERCENT DISCREPANCY =             -0.00



1
 SUMMARY VOLUMETRIC BUDGET FOR GSFLOW 
 DATE: 02 03 1981              CUMULATIVE TIME STEP:     126
 MODFLOW STRESS PERIOD      2     CURRENT TIME STEP:     126     ITERATIONS:      13

 -----------------------------------------------------------------------------------

   CUMULATIVE VOLUMES               L**3   RATES FOR THIS TIME STEP           L**3/T
   ------------------                      ------------------------

                                     IN                                         IN
                                     --                                         --
        PRECIPITATION =        8802115.43          PRECIPITATION =                  
           STREAMFLOW =                               STREAMFLOW =                  
     GW BOUNDARY FLOW =                         GW BOUNDARY FLOW =                  
                WELLS =           1999.45                  WELLS =              6.52


                                    OUT                                        OUT
                                    ---                                        ---
   EVAPOTRANSPIRATION =        3284050.92     EVAPOTRANSPIRATION =          13261.65
           STREAMFLOW =        1587391.82             STREAMFLOW =          13751.66
     GW BOUNDARY FLOW =          91310.23       GW BOUNDARY FLOW =            724.88
                WELLS =         182385.84                  WELLS =            810.32

   INFLOWS - OUTFLOWS =        3658976.06     INFLOWS - OUTFLOWS =         -28541.98
             --------                                   --------

 TOTAL STORAGE CHANGE =        3661471.04         STORAGE CHANGE =         -28532.47
       --------------                             --------------
         LAND SURFACE =        4607997.57           LAND SURFACE =         -13261.65
            SOIL ZONE =        1697438.75              SOIL ZONE =           4203.39
     UNSATURATED ZONE =       -1819786.54       UNSATURATED ZONE =         -10030.92
       SATURATED ZONE =        -824178.74         SATURATED ZONE =          -9443.28

 OVERALL BUDGET ERROR =          -2494.98           BUDGET ERROR =             -9.52


  PERCENT DISCREPANCY =             -0.03    PERCENT DISCREPANCY =             -0.03



1
 SUMMARY VOLUMETRIC BUDGET FOR GSFLOW 
 DATE: 02 10 1981              CUMULATIVE TIME STEP:     133
 MODFLOW STRESS PERIOD      2     CURRENT TIME STEP:     133     ITERATIONS:      12

 -----------------------------------------------------------------------------------

   CUMULATIVE VOLUMES               L**3   RATES FOR THIS TIME STEP           L**3/T
   ------------------                      ------------------------

                                     IN                                         IN
                                     --                                         --
        PRECIPITATION =        8811949.58          PRECIPITATION =                  
           STREAMFLOW =                               STREAMFLOW =                  
     GW BOUNDARY FLOW =                         GW BOUNDARY FLOW =                  
                WELLS =           2086.86                  WELLS =             12.79


                                    OUT                                        OUT
                                    ---                                        ---
   EVAPOTRANSPIRATION =        3392329.45     EVAPOTRANSPIRATION =          21067.61
           STREAMFLOW =        1690235.67             STREAMFLOW =          15208.80
     GW BOUNDARY FLOW =          96385.43       GW BOUNDARY FLOW =            725.11
                WELLS =         188029.50                  WELLS =            798.84

   INFLOWS - OUTFLOWS =        3447056.39     INFLOWS - OUTFLOWS =         -37787.57
             --------                                   --------

 TOTAL STORAGE CHANGE =        3449614.62         STORAGE CHANGE =         -37778.80
       --------------                             --------------
         LAND SURFACE =        4509553.19           LAND SURFACE =         -21067.61
            SOIL ZONE =        1720145.91              SOIL ZONE =           2703.31
     UNSATURATED ZONE =       -1888223.68       UNSATURATED ZONE =          -9589.25
       SATURATED ZONE =        -891860.80         SATURATED ZONE =          -9825.26

 OVERALL BUDGET ERROR =          -2558.23           BUDGET ERROR =             -8.77


  PERCENT DISCREPANCY =             -0.03    PERCENT DISCREPANCY =             -0.02



1
 SUMMARY VOLUMETRIC BUDGET FOR GSFLOW 
 DATE: 02 17 1981              CUMULATIVE TIME STEP:     140
 MODFLOW STRESS PERIOD      2     CURRENT TIME STEP:     140     ITERATIONS:      12

 -----------------------------------------------------------------------------------

   CUMULATIVE VOLUMES               L**3   RATES FOR THIS TIME STEP           L**3/T
   ------------------                      ------------------------

                                     IN                                         IN
                                     --                                         --
        PRECIPITATION =        1.0087D+07          PRECIPITATION =         108298.87
           STREAMFLOW =                               STREAMFLOW =                  
     GW BOUNDARY FLOW =                         GW BOUNDARY FLOW =                  
                WELLS =           2173.33                  WELLS =             15.33


                                    OUT                                        OUT
                                    ---                                        ---
   EVAPOTRANSPIRATION =        3676205.90     EVAPOTRANSPIRATION =          58721.88
           STREAMFLOW =        2256363.80             STREAMFLOW =         144820.02
     GW BOUNDARY FLOW =         101489.95       GW BOUNDARY FLOW =            733.87
                WELLS =         194557.64                  WELLS =           1271.07

   INFLOWS - OUTFLOWS =        3860163.17     INFLOWS - OUTFLOWS =         -97232.64
             --------                                   --------

 TOTAL STORAGE CHANGE =        3862784.52         STORAGE CHANGE =         -97223.91
       --------------                             --------------
         LAND SURFACE =        3726543.89           LAND SURFACE =        -273415.05
            SOIL ZONE =        2988412.75              SOIL ZONE =         175863.42
     UNSATURATED ZONE =       -1904864.01       UNSATURATED ZONE =           7260.34
       SATURATED ZONE =        -947308.11         SATURATED ZONE =          -6932.63

 OVERALL BUDGET ERROR =          -2621.35           BUDGET ERROR =             -8.73


  PERCENT DISCREPANCY =             -0.03    PERCENT DISCREPANCY =             -0.00



1
 SUMMARY VOLUMETRIC BUDGET FOR GSFLOW 
 DATE: 02 24 1981              CUMULATIVE TIME STEP:     147
 MODFLOW STRESS PERIOD      2     CURRENT TIME STEP:     147     ITERATIONS:      12

 -----------------------------------------------------------------------------------

   CUMULATIVE VOLUMES               L**3   RATES FOR THIS TIME STEP           L**3/T
   ------------------                      ------------------------

                                     IN                                         IN
                                     --                                         --
        PRECIPITATION =        1.0560D+07          PRECIPITATION =         473376.13
           STREAMFLOW =                               STREAMFLOW =                  
     GW BOUNDARY FLOW =                         GW BOUNDARY FLOW =                  
                WELLS =           2300.39                  WELLS =             18.86


                                    OUT                                        OUT
                                    ---                                        ---
   EVAPOTRANSPIRATION =        3996314.02     EVAPOTRANSPIRATION =          20787.25
           STREAMFLOW =        2997970.51             STREAMFLOW =         123051.90
     GW BOUNDARY FLOW =         106627.25       GW BOUNDARY FLOW =            733.98
                WELLS =         202598.05                  WELLS =            876.01

   INFLOWS - OUTFLOWS =        3258773.83     INFLOWS - OUTFLOWS =         327945.85
             --------                                   --------

 TOTAL STORAGE CHANGE =        3261450.86         STORAGE CHANGE =         327954.17
       --------------                             --------------
         LAND SURFACE =        3022379.44           LAND SURFACE =         234734.31
            SOIL ZONE =        3084486.59              SOIL ZONE =          89280.60
     UNSATURATED ZONE =       -1838672.07       UNSATURATED ZONE =          11386.60
       SATURATED ZONE =       -1006743.09         SATURATED ZONE =          -7447.33

 OVERALL BUDGET ERROR =          -2677.03           BUDGET ERROR =             -8.31


  PERCENT DISCREPANCY =             -0.03    PERCENT DISCREPANCY =             -0.00



1
 SUMMARY VOLUMETRIC BUDGET FOR GSFLOW 
 DATE: 03 03 1981              CUMULATIVE TIME STEP:     154
 MODFLOW STRESS PERIOD      2     CURRENT TIME STEP:     154     ITERATIONS:      12

 -----------------------------------------------------------------------------------

   CUMULATIVE VOLUMES               L**3   RATES FOR THIS TIME STEP           L**3/T
   ------------------                      ------------------------

                                     IN                                         IN
                                     --                                         --
        PRECIPITATION =        1.1273D+07          PRECIPITATION =                  
           STREAMFLOW =                               STREAMFLOW =                  
     GW BOUNDARY FLOW =                         GW BOUNDARY FLOW =                  
                WELLS =           2417.54                  WELLS =             24.23


                                    OUT                                        OUT
                                    ---                                        ---
   EVAPOTRANSPIRATION =        4113056.65     EVAPOTRANSPIRATION =          40276.78
           STREAMFLOW =        3372147.41             STREAMFLOW =          38836.24
     GW BOUNDARY FLOW =         111743.78       GW BOUNDARY FLOW =            729.11
                WELLS =         209626.25                  WELLS =            899.21

   INFLOWS - OUTFLOWS =        3469172.47     INFLOWS - OUTFLOWS =         -80717.11
             --------                                   --------

 TOTAL STORAGE CHANGE =        3471889.21         STORAGE CHANGE =         -80712.41
       --------------                             --------------
         LAND SURFACE =        3606981.68           LAND SURFACE =         -51898.36
            SOIL ZONE =        2738711.81              SOIL ZONE =         -21656.80
     UNSATURATED ZONE =       -1800215.78       UNSATURATED ZONE =           2276.03
       SATURATED ZONE =       -1073588.50         SATURATED ZONE =          -9433.28

 OVERALL BUDGET ERROR =          -2716.74           BUDGET ERROR =             -4.70


  PERCENT DISCREPANCY =             -0.02    PERCENT DISCREPANCY =             -0.01



1
 SUMMARY VOLUMETRIC BUDGET FOR GSFLOW 
 DATE: 03 10 1981              CUMULATIVE TIME STEP:     161
 MODFLOW STRESS PERIOD      2     CURRENT TIME STEP:     161     ITERATIONS:      12

 -----------------------------------------------------------------------------------

   CUMULATIVE VOLUMES               L**3   RATES FOR THIS TIME STEP           L**3/T
   ------------------                      ------------------------

                                     IN                                         IN
                                     --                                         --
        PRECIPITATION =        1.1273D+07          PRECIPITATION =                  
           STREAMFLOW =                               STREAMFLOW =                  
     GW BOUNDARY FLOW =                         GW BOUNDARY FLOW =                  
                WELLS =           2587.91                  WELLS =             27.69


                                    OUT                                        OUT
                                    ---                                        ---
   EVAPOTRANSPIRATION =        4386628.04     EVAPOTRANSPIRATION =          69354.86
           STREAMFLOW =        3717745.86             STREAMFLOW =          74859.58
     GW BOUNDARY FLOW =         116847.76       GW BOUNDARY FLOW =            730.59
                WELLS =         214782.47                  WELLS =            526.89

   INFLOWS - OUTFLOWS =        2839912.82     INFLOWS - OUTFLOWS =        -145444.23
             --------                                   --------

 TOTAL STORAGE CHANGE =        2842662.00         STORAGE CHANGE =        -145439.02
       --------------                             --------------
         LAND SURFACE =        2844779.90           LAND SURFACE =        -220108.14
            SOIL ZONE =        2909729.68              SOIL ZONE =          75532.79
     UNSATURATED ZONE =       -1776586.90       UNSATURATED ZONE =           6829.58
       SATURATED ZONE =       -1135260.68         SATURATED ZONE =          -7693.26

 OVERALL BUDGET ERROR =          -2749.18           BUDGET ERROR =             -5.21


  PERCENT DISCREPANCY =             -0.02    PERCENT DISCREPANCY =             -0.00



1
 SUMMARY VOLUMETRIC BUDGET FOR GSFLOW 
 DATE: 03 17 1981              CUMULATIVE TIME STEP:     168
 MODFLOW STRESS PERIOD      2     CURRENT TIME STEP:     168     ITERATIONS:      12

 -----------------------------------------------------------------------------------

   CUMULATIVE VOLUMES               L**3   RATES FOR THIS TIME STEP           L**3/T
   ------------------                      ------------------------

                                     IN                                         IN
                                     --                                         --
        PRECIPITATION =        1.1499D+07          PRECIPITATION =                  
           STREAMFLOW =                               STREAMFLOW =                  
     GW BOUNDARY FLOW =                         GW BOUNDARY FLOW =                  
                WELLS =           2778.08                  WELLS =             26.63


                                    OUT                                        OUT
                                    ---                                        ---
   EVAPOTRANSPIRATION =        4668716.11     EVAPOTRANSPIRATION =          29980.50
           STREAMFLOW =        4058198.88             STREAMFLOW =          31205.15
     GW BOUNDARY FLOW =         121957.16       GW BOUNDARY FLOW =            728.38
                WELLS =         218441.32                  WELLS =            519.58

   INFLOWS - OUTFLOWS =        2434864.33     INFLOWS - OUTFLOWS =         -62406.98
             --------                                   --------

 TOTAL STORAGE CHANGE =        2437638.79         STORAGE CHANGE =         -62404.52
       --------------                             --------------
         LAND SURFACE =        2717373.57           LAND SURFACE =         -29709.91
            SOIL ZONE =        2667444.66              SOIL ZONE =         -23531.26
     UNSATURATED ZONE =       -1747523.20       UNSATURATED ZONE =            556.50
       SATURATED ZONE =       -1199656.24         SATURATED ZONE =          -9719.86

 OVERALL BUDGET ERROR =          -2774.47           BUDGET ERROR =             -2.46


  PERCENT DISCREPANCY =             -0.02    PERCENT DISCREPANCY =             -0.00



1
 SUMMARY VOLUMETRIC BUDGET FOR GSFLOW 
 DATE: 03 24 1981              CUMULATIVE TIME STEP:     175
 MODFLOW STRESS PERIOD      2     CURRENT TIME STEP:     175     ITERATIONS:      12

 -----------------------------------------------------------------------------------

   CUMULATIVE VOLUMES               L**3   RATES FOR THIS TIME STEP           L**3/T
   ------------------                      ------------------------

                                     IN                                         IN
                                     --                                         --
        PRECIPITATION =        1.2888D+07          PRECIPITATION =                  
           STREAMFLOW =                               STREAMFLOW =                  
     GW BOUNDARY FLOW =                         GW BOUNDARY FLOW =                  
                WELLS =           2946.79                  WELLS =             24.39


                                    OUT                                        OUT
                                    ---                                        ---
   EVAPOTRANSPIRATION =        4916178.98     EVAPOTRANSPIRATION =          70526.45
           STREAMFLOW =        4257282.97             STREAMFLOW =          33766.38
     GW BOUNDARY FLOW =         127049.88       GW BOUNDARY FLOW =            727.48
                WELLS =         223833.48                  WELLS =            949.67

   INFLOWS - OUTFLOWS =        3366292.18     INFLOWS - OUTFLOWS =        -105945.58
             --------                                   --------

 TOTAL STORAGE CHANGE =        3369082.98         STORAGE CHANGE =        -105942.70
       --------------                             --------------
         LAND SURFACE =        3858728.06           LAND SURFACE =         -89844.94
            SOIL ZONE =        2542450.62              SOIL ZONE =          -3892.48
     UNSATURATED ZONE =       -1762838.09       UNSATURATED ZONE =          -2469.84
       SATURATED ZONE =       -1269257.61         SATURATED ZONE =          -9735.43

 OVERALL BUDGET ERROR =          -2790.80           BUDGET ERROR =             -2.88


  PERCENT DISCREPANCY =             -0.02    PERCENT DISCREPANCY =             -0.00



1
 SUMMARY VOLUMETRIC BUDGET FOR GSFLOW 
 DATE: 03 31 1981              CUMULATIVE TIME STEP:     182
 MODFLOW STRESS PERIOD      2     CURRENT TIME STEP:     182     ITERATIONS:      12

 -----------------------------------------------------------------------------------

   CUMULATIVE VOLUMES               L**3   RATES FOR THIS TIME STEP           L**3/T
   ------------------                      ------------------------

                                     IN                                         IN
                                     --                                         --
        PRECIPITATION =        1.4484D+07          PRECIPITATION =                  
           STREAMFLOW =                               STREAMFLOW =                  
     GW BOUNDARY FLOW =                         GW BOUNDARY FLOW =                  
                WELLS =           3116.03                  WELLS =             24.01


                                    OUT                                        OUT
                                    ---                                        ---
   EVAPOTRANSPIRATION =        5189865.71     EVAPOTRANSPIRATION =          24457.83
           STREAMFLOW =        4640731.18             STREAMFLOW =          38772.24
     GW BOUNDARY FLOW =         132156.11       GW BOUNDARY FLOW =            729.02
                WELLS =         230398.10                  WELLS =            929.68

   INFLOWS - OUTFLOWS =        4293542.45     INFLOWS - OUTFLOWS =         -64864.76
             --------                                   --------

 TOTAL STORAGE CHANGE =        4296350.10         STORAGE CHANGE =         -64862.69
       --------------                             --------------
         LAND SURFACE =        4684354.31           LAND SURFACE =         -24777.94
            SOIL ZONE =        2690437.83              SOIL ZONE =         -31518.17
     UNSATURATED ZONE =       -1742703.86       UNSATURATED ZONE =           1709.96
       SATURATED ZONE =       -1335738.18         SATURATED ZONE =         -10276.54

 OVERALL BUDGET ERROR =          -2807.65           BUDGET ERROR =             -2.07


  PERCENT DISCREPANCY =             -0.02    PERCENT DISCREPANCY =             -0.00



1
 SUMMARY VOLUMETRIC BUDGET FOR GSFLOW 
 DATE: 04 07 1981              CUMULATIVE TIME STEP:     189
 MODFLOW STRESS PERIOD      2     CURRENT TIME STEP:     189     ITERATIONS:      12

 -----------------------------------------------------------------------------------

   CUMULATIVE VOLUMES               L**3   RATES FOR THIS TIME STEP           L**3/T
   ------------------                      ------------------------

                                     IN                                         IN
                                     --                                         --
        PRECIPITATION =        1.4833D+07          PRECIPITATION =                  
           STREAMFLOW =                               STREAMFLOW =                  
     GW BOUNDARY FLOW =                         GW BOUNDARY FLOW =                  
                WELLS =           3282.57                  WELLS =             23.63


                                    OUT                                        OUT
                                    ---                                        ---
   EVAPOTRANSPIRATION =        5771789.39     EVAPOTRANSPIRATION =         124525.83
           STREAMFLOW =        5071463.38             STREAMFLOW =          79087.15
     GW BOUNDARY FLOW =         137265.24       GW BOUNDARY FLOW =            731.43
                WELLS =         236842.81                  WELLS =            914.54

   INFLOWS - OUTFLOWS =        3618616.18     INFLOWS - OUTFLOWS =        -205235.32
             --------                                   --------

 TOTAL STORAGE CHANGE =        3621443.14         STORAGE CHANGE =        -205232.11
       --------------                             --------------
         LAND SURFACE =        3941585.63           LAND SURFACE =        -234324.36
            SOIL ZONE =        2795535.58              SOIL ZONE =          30540.69
     UNSATURATED ZONE =       -1715256.15       UNSATURATED ZONE =           7403.50
       SATURATED ZONE =       -1400421.92         SATURATED ZONE =          -8851.93

 OVERALL BUDGET ERROR =          -2826.96           BUDGET ERROR =             -3.22


  PERCENT DISCREPANCY =             -0.02    PERCENT DISCREPANCY =             -0.00



1
 SUMMARY VOLUMETRIC BUDGET FOR GSFLOW 
 DATE: 04 14 1981              CUMULATIVE TIME STEP:     196
 MODFLOW STRESS PERIOD      2     CURRENT TIME STEP:     196     ITERATIONS:      12

 -----------------------------------------------------------------------------------

   CUMULATIVE VOLUMES               L**3   RATES FOR THIS TIME STEP           L**3/T
   ------------------                      ------------------------

                                     IN                                         IN
                                     --                                         --
        PRECIPITATION =        1.4833D+07          PRECIPITATION =                  
           STREAMFLOW =                               STREAMFLOW =                  
     GW BOUNDARY FLOW =                         GW BOUNDARY FLOW =                  
                WELLS =           3443.31                  WELLS =             22.82


                                    OUT                                        OUT
                                    ---                                        ---
   EVAPOTRANSPIRATION =        6581238.26     EVAPOTRANSPIRATION =         170582.13
           STREAMFLOW =        5612962.96             STREAMFLOW =          91676.75
     GW BOUNDARY FLOW =         142384.97       GW BOUNDARY FLOW =            731.91
                WELLS =         244497.24                  WELLS =           1327.25

   INFLOWS - OUTFLOWS =        2255054.31     INFLOWS - OUTFLOWS =        -264295.23
             --------                                   --------

 TOTAL STORAGE CHANGE =        2257899.49         STORAGE CHANGE =        -264292.42
       --------------                             --------------
         LAND SURFACE =        2550232.00           LAND SURFACE =        -280378.98
            SOIL ZONE =        2836217.22              SOIL ZONE =          16037.19
     UNSATURATED ZONE =       -1664144.36       UNSATURATED ZONE =           8757.97
       SATURATED ZONE =       -1464405.37         SATURATED ZONE =          -8708.60

 OVERALL BUDGET ERROR =          -2845.18           BUDGET ERROR =             -2.80


  PERCENT DISCREPANCY =             -0.02    PERCENT DISCREPANCY =             -0.00



1
 SUMMARY VOLUMETRIC BUDGET FOR GSFLOW 
 DATE: 04 21 1981              CUMULATIVE TIME STEP:     203
 MODFLOW STRESS PERIOD      2     CURRENT TIME STEP:     203     ITERATIONS:      12

 -----------------------------------------------------------------------------------

   CUMULATIVE VOLUMES               L**3   RATES FOR THIS TIME STEP           L**3/T
   ------------------                      ------------------------

                                     IN                                         IN
                                     --                                         --
        PRECIPITATION =        1.4976D+07          PRECIPITATION =                  
           STREAMFLOW =                               STREAMFLOW =                  
     GW BOUNDARY FLOW =                         GW BOUNDARY FLOW =                  
                WELLS =           3603.87                  WELLS =             23.01


                                    OUT                                        OUT
                                    ---                                        ---
   EVAPOTRANSPIRATION =        7558421.94     EVAPOTRANSPIRATION =         164993.93
           STREAMFLOW =        6139825.60             STREAMFLOW =          74800.93
     GW BOUNDARY FLOW =         147504.21       GW BOUNDARY FLOW =            730.79
                WELLS =         253657.87                  WELLS =           1296.23

   INFLOWS - OUTFLOWS =         880505.91     INFLOWS - OUTFLOWS =        -241798.87
             --------                                   --------

 TOTAL STORAGE CHANGE =         883363.23         STORAGE CHANGE =        -241797.40
       --------------                             --------------
         LAND SURFACE =        1344758.03           LAND SURFACE =        -142775.86
            SOIL ZONE =        2687878.85              SOIL ZONE =         -95278.19
     UNSATURATED ZONE =       -1618493.27       UNSATURATED ZONE =           5152.61
       SATURATED ZONE =       -1530780.39         SATURATED ZONE =          -8895.96

 OVERALL BUDGET ERROR =          -2857.31           BUDGET ERROR =             -1.47


  PERCENT DISCREPANCY =             -0.02    PERCENT DISCREPANCY =             -0.00



1
 SUMMARY VOLUMETRIC BUDGET FOR GSFLOW 
 DATE: 04 28 1981              CUMULATIVE TIME STEP:     210
 MODFLOW STRESS PERIOD      2     CURRENT TIME STEP:     210     ITERATIONS:      12

 -----------------------------------------------------------------------------------

   CUMULATIVE VOLUMES               L**3   RATES FOR THIS TIME STEP           L**3/T
   ------------------                      ------------------------

                                     IN                                         IN
                                     --                                         --
        PRECIPITATION =        1.5195D+07          PRECIPITATION =                  
           STREAMFLOW =                               STREAMFLOW =                  
     GW BOUNDARY FLOW =                         GW BOUNDARY FLOW =                  
                WELLS =           3765.54                  WELLS =             23.15


                                    OUT                                        OUT
                                    ---                                        ---
   EVAPOTRANSPIRATION =        8840302.54     EVAPOTRANSPIRATION =         212430.53
           STREAMFLOW =        6460020.09             STREAMFLOW =          39678.48
     GW BOUNDARY FLOW =         152606.82       GW BOUNDARY FLOW =            727.69
                WELLS =         262635.14                  WELLS =           1273.03

   INFLOWS - OUTFLOWS =        -517179.89     INFLOWS - OUTFLOWS =        -254086.59
             --------                                   --------

 TOTAL STORAGE CHANGE =        -514306.24         STORAGE CHANGE =        -254083.94
       --------------                             --------------
         LAND SURFACE =         618107.91           LAND SURFACE =         -78028.63
            SOIL ZONE =        2086321.79              SOIL ZONE =        -164997.49
     UNSATURATED ZONE =       -1614210.38       UNSATURATED ZONE =           -786.03
       SATURATED ZONE =       -1604525.56         SATURATED ZONE =         -10271.79

 OVERALL BUDGET ERROR =          -2873.66           BUDGET ERROR =             -2.65


  PERCENT DISCREPANCY =             -0.02    PERCENT DISCREPANCY =             -0.00



1
 SUMMARY VOLUMETRIC BUDGET FOR GSFLOW 
 DATE: 05 05 1981              CUMULATIVE TIME STEP:     217
 MODFLOW STRESS PERIOD      2     CURRENT TIME STEP:     217     ITERATIONS:      12

 -----------------------------------------------------------------------------------

   CUMULATIVE VOLUMES               L**3   RATES FOR THIS TIME STEP           L**3/T
   ------------------                      ------------------------

                                     IN                                         IN
                                     --                                         --
        PRECIPITATION =        1.5195D+07          PRECIPITATION =                  
           STREAMFLOW =                               STREAMFLOW =                  
     GW BOUNDARY FLOW =                         GW BOUNDARY FLOW =                  
                WELLS =           3887.22                  WELLS =             12.46


                                    OUT                                        OUT
                                    ---                                        ---
   EVAPOTRANSPIRATION =        9823255.28     EVAPOTRANSPIRATION =          53604.35
           STREAMFLOW =        6601450.24             STREAMFLOW =          11329.40
     GW BOUNDARY FLOW =         157687.94       GW BOUNDARY FLOW =            724.43
                WELLS =         270031.12                  WELLS =            778.43

   INFLOWS - OUTFLOWS =       -1653918.20     INFLOWS - OUTFLOWS =         -66424.15
             --------                                   --------

 TOTAL STORAGE CHANGE =       -1651017.66         STORAGE CHANGE =         -66419.99
       --------------                             --------------
         LAND SURFACE =         302318.35           LAND SURFACE =          -6704.03
            SOIL ZONE =        1377629.96              SOIL ZONE =         -42004.25
     UNSATURATED ZONE =       -1647118.05       UNSATURATED ZONE =          -6365.66
       SATURATED ZONE =       -1683847.92         SATURATED ZONE =         -11346.04

 OVERALL BUDGET ERROR =          -2900.54           BUDGET ERROR =             -4.16


  PERCENT DISCREPANCY =             -0.02    PERCENT DISCREPANCY =             -0.01



1
 SUMMARY VOLUMETRIC BUDGET FOR GSFLOW 
 DATE: 05 12 1981              CUMULATIVE TIME STEP:     224
 MODFLOW STRESS PERIOD      2     CURRENT TIME STEP:     224     ITERATIONS:      12

 -----------------------------------------------------------------------------------

   CUMULATIVE VOLUMES               L**3   RATES FOR THIS TIME STEP           L**3/T
   ------------------                      ------------------------

                                     IN                                         IN
                                     --                                         --
        PRECIPITATION =        1.5195D+07          PRECIPITATION =                  
           STREAMFLOW =                               STREAMFLOW =                  
     GW BOUNDARY FLOW =                         GW BOUNDARY FLOW =                  
                WELLS =           3976.51                  WELLS =             12.42


                                    OUT                                        OUT
                                    ---                                        ---
   EVAPOTRANSPIRATION =        1.0342D+07     EVAPOTRANSPIRATION =          89937.33
           STREAMFLOW =        6673162.62             STREAMFLOW =          10556.66
     GW BOUNDARY FLOW =         162753.30       GW BOUNDARY FLOW =            723.36
                WELLS =         275432.13                  WELLS =            766.21

   INFLOWS - OUTFLOWS =       -2254440.07     INFLOWS - OUTFLOWS =        -101971.13
             --------                                   --------

 TOTAL STORAGE CHANGE =       -2251509.76         STORAGE CHANGE =        -101966.87
       --------------                             --------------
         LAND SURFACE =         173424.89           LAND SURFACE =         -24891.36
            SOIL ZONE =        1031125.18              SOIL ZONE =         -59240.77
     UNSATURATED ZONE =       -1692991.84       UNSATURATED ZONE =          -6317.29
       SATURATED ZONE =       -1763067.99         SATURATED ZONE =         -11517.46

 OVERALL BUDGET ERROR =          -2930.31           BUDGET ERROR =             -4.25


  PERCENT DISCREPANCY =             -0.02    PERCENT DISCREPANCY =             -0.00



1
 SUMMARY VOLUMETRIC BUDGET FOR GSFLOW 
 DATE: 05 19 1981              CUMULATIVE TIME STEP:     231
 MODFLOW STRESS PERIOD      2     CURRENT TIME STEP:     231     ITERATIONS:      12

 -----------------------------------------------------------------------------------

   CUMULATIVE VOLUMES               L**3   RATES FOR THIS TIME STEP           L**3/T
   ------------------                      ------------------------

                                     IN                                         IN
                                     --                                         --
        PRECIPITATION =        1.6217D+07          PRECIPITATION =         339612.76
           STREAMFLOW =                               STREAMFLOW =                  
     GW BOUNDARY FLOW =                         GW BOUNDARY FLOW =                  
                WELLS =           4076.28                  WELLS =             15.47


                                    OUT                                        OUT
                                    ---                                        ---
   EVAPOTRANSPIRATION =        1.0680D+07     EVAPOTRANSPIRATION =          28294.73
           STREAMFLOW =        6762507.54             STREAMFLOW =          16288.03
     GW BOUNDARY FLOW =         167816.76       GW BOUNDARY FLOW =            723.81
                WELLS =         279321.94                  WELLS =            399.55

   INFLOWS - OUTFLOWS =       -1668923.52     INFLOWS - OUTFLOWS =         293922.12
             --------                                   --------

 TOTAL STORAGE CHANGE =       -1665962.87         STORAGE CHANGE =         293926.24
       --------------                             --------------
         LAND SURFACE =         345360.36           LAND SURFACE =         162072.28
            SOIL ZONE =        1565376.24              SOIL ZONE =         148285.22
     UNSATURATED ZONE =       -1733730.64       UNSATURATED ZONE =          -5016.33
       SATURATED ZONE =       -1842968.83         SATURATED ZONE =         -11414.93

 OVERALL BUDGET ERROR =          -2960.65           BUDGET ERROR =             -4.13


  PERCENT DISCREPANCY =             -0.02    PERCENT DISCREPANCY =             -0.00



1
 SUMMARY VOLUMETRIC BUDGET FOR GSFLOW 
 DATE: 05 26 1981              CUMULATIVE TIME STEP:     238
 MODFLOW STRESS PERIOD      2     CURRENT TIME STEP:     238     ITERATIONS:      12

 -----------------------------------------------------------------------------------

   CUMULATIVE VOLUMES               L**3   RATES FOR THIS TIME STEP           L**3/T
   ------------------                      ------------------------

                                     IN                                         IN
                                     --                                         --
        PRECIPITATION =        1.6608D+07          PRECIPITATION =         171546.23
           STREAMFLOW =                               STREAMFLOW =                  
     GW BOUNDARY FLOW =                         GW BOUNDARY FLOW =                  
                WELLS =           4153.90                  WELLS =              5.98


                                    OUT                                        OUT
                                    ---                                        ---
   EVAPOTRANSPIRATION =        1.1379D+07     EVAPOTRANSPIRATION =         111893.61
           STREAMFLOW =        6864976.02             STREAMFLOW =          17302.24
     GW BOUNDARY FLOW =         172881.89       GW BOUNDARY FLOW =            723.66
                WELLS =         283568.71                  WELLS =            920.23

   INFLOWS - OUTFLOWS =       -2088485.65     INFLOWS - OUTFLOWS =          40712.48
             --------                                   --------

 TOTAL STORAGE CHANGE =       -2085496.64         STORAGE CHANGE =          40716.53
       --------------                             --------------
         LAND SURFACE =         119108.05           LAND SURFACE =          -6047.32
            SOIL ZONE =        1486894.11              SOIL ZONE =          63228.92
     UNSATURATED ZONE =       -1765720.51       UNSATURATED ZONE =          -4378.74
       SATURATED ZONE =       -1925778.27         SATURATED ZONE =         -12086.33

 OVERALL BUDGET ERROR =          -2989.01           BUDGET ERROR =             -4.05


  PERCENT DISCREPANCY =             -0.02    PERCENT DISCREPANCY =             -0.00



1
 SUMMARY VOLUMETRIC BUDGET FOR GSFLOW 
 DATE: 06 02 1981              CUMULATIVE TIME STEP:     245
 MODFLOW STRESS PERIOD      2     CURRENT TIME STEP:     245     ITERATIONS:      12

 -----------------------------------------------------------------------------------

   CUMULATIVE VOLUMES               L**3   RATES FOR THIS TIME STEP           L**3/T
   ------------------                      ------------------------

                                     IN                                         IN
                                     --                                         --
        PRECIPITATION =        1.6690D+07          PRECIPITATION =                  
           STREAMFLOW =                               STREAMFLOW =                  
     GW BOUNDARY FLOW =                         GW BOUNDARY FLOW =                  
                WELLS =           4188.24                  WELLS =              4.16


                                    OUT                                        OUT
                                    ---                                        ---
   EVAPOTRANSPIRATION =        1.2141D+07     EVAPOTRANSPIRATION =          68443.69
           STREAMFLOW =        6940902.63             STREAMFLOW =           7060.95
     GW BOUNDARY FLOW =         177943.17       GW BOUNDARY FLOW =            722.35
                WELLS =         289895.54                  WELLS =            893.01

   INFLOWS - OUTFLOWS =       -2855443.36     INFLOWS - OUTFLOWS =         -77115.84
             --------                                   --------

 TOTAL STORAGE CHANGE =       -2852426.36         STORAGE CHANGE =         -77111.57
[...]
     GW BOUNDARY FLOW =                         GW BOUNDARY FLOW =                  
                WELLS =          20135.66                  WELLS =             23.79


                                    OUT                                        OUT
                                    ---                                        ---
   EVAPOTRANSPIRATION =        4.9155D+07     EVAPOTRANSPIRATION =         225188.84
           STREAMFLOW =        5.8338D+07             STREAMFLOW =         153802.12
     GW BOUNDARY FLOW =         730434.25       GW BOUNDARY FLOW =            730.82
                WELLS =         912095.90                  WELLS =            925.91

   INFLOWS - OUTFLOWS =         568481.93     INFLOWS - OUTFLOWS =        -380623.90
             --------                                   --------

 TOTAL STORAGE CHANGE =         572401.07         STORAGE CHANGE =        -380624.02
       --------------                             --------------
         LAND SURFACE =        7106260.27           LAND SURFACE =        -343324.25
            SOIL ZONE =        2884157.48              SOIL ZONE =         -46611.16
     UNSATURATED ZONE =         654746.75       UNSATURATED ZONE =          13961.82
       SATURATED ZONE =       -1.0073D+07         SATURATED ZONE =          -4650.44

 OVERALL BUDGET ERROR =          -3919.14           BUDGET ERROR =              0.12


  PERCENT DISCREPANCY =             -0.00    PERCENT DISCREPANCY =              0.00



1
 SUMMARY VOLUMETRIC BUDGET FOR GSFLOW 
 DATE: 07 12 1983              CUMULATIVE TIME STEP:    1015
 MODFLOW STRESS PERIOD      2     CURRENT TIME STEP:    1015     ITERATIONS:      10

 -----------------------------------------------------------------------------------

   CUMULATIVE VOLUMES               L**3   RATES FOR THIS TIME STEP           L**3/T
   ------------------                      ------------------------

                                     IN                                         IN
                                     --                                         --
        PRECIPITATION =        1.0968D+08          PRECIPITATION =                  
           STREAMFLOW =                               STREAMFLOW =                  
     GW BOUNDARY FLOW =                         GW BOUNDARY FLOW =                  
                WELLS =          20251.60                  WELLS =             13.55


                                    OUT                                        OUT
                                    ---                                        ---
   EVAPOTRANSPIRATION =        5.0240D+07     EVAPOTRANSPIRATION =         210573.66
           STREAMFLOW =        5.9039D+07             STREAMFLOW =          97836.80
     GW BOUNDARY FLOW =         735530.94       GW BOUNDARY FLOW =            726.88
                WELLS =         916586.49                  WELLS =            432.45

   INFLOWS - OUTFLOWS =       -1226712.42     INFLOWS - OUTFLOWS =        -309556.24
             --------                                   --------

 TOTAL STORAGE CHANGE =       -1222801.08         STORAGE CHANGE =        -309557.54
       --------------                             --------------
         LAND SURFACE =        5613665.08           LAND SURFACE =        -256288.33
            SOIL ZONE =        2555971.70              SOIL ZONE =         -56491.97
     UNSATURATED ZONE =         719350.96       UNSATURATED ZONE =           8253.24
       SATURATED ZONE =       -1.0112D+07         SATURATED ZONE =          -5030.49

 OVERALL BUDGET ERROR =          -3911.34           BUDGET ERROR =              1.30


  PERCENT DISCREPANCY =             -0.00    PERCENT DISCREPANCY =              0.00



1
 SUMMARY VOLUMETRIC BUDGET FOR GSFLOW 
 DATE: 07 19 1983              CUMULATIVE TIME STEP:    1022
 MODFLOW STRESS PERIOD      2     CURRENT TIME STEP:    1022     ITERATIONS:      10

 -----------------------------------------------------------------------------------

   CUMULATIVE VOLUMES               L**3   RATES FOR THIS TIME STEP           L**3/T
   ------------------                      ------------------------

                                     IN                                         IN
                                     --                                         --
        PRECIPITATION =        1.0968D+08          PRECIPITATION =                  
           STREAMFLOW =                               STREAMFLOW =                  
     GW BOUNDARY FLOW =                         GW BOUNDARY FLOW =                  
                WELLS =          20340.03                  WELLS =             11.75


                                    OUT                                        OUT
                                    ---                                        ---
   EVAPOTRANSPIRATION =        5.1335D+07     EVAPOTRANSPIRATION =         126994.93
           STREAMFLOW =        5.9514D+07             STREAMFLOW =          52477.05
     GW BOUNDARY FLOW =         740607.70       GW BOUNDARY FLOW =            723.79
                WELLS =         920435.50                  WELLS =            848.01

   INFLOWS - OUTFLOWS =       -2805237.14     INFLOWS - OUTFLOWS =        -181032.03
             --------                                   --------

 TOTAL STORAGE CHANGE =       -2801330.31         STORAGE CHANGE =        -181032.40
       --------------                             --------------
         LAND SURFACE =        4402480.22           LAND SURFACE =        -130517.42
            SOIL ZONE =        2200267.68              SOIL ZONE =         -46843.46
     UNSATURATED ZONE =         750753.76       UNSATURATED ZONE =           2883.03
       SATURATED ZONE =       -1.0155D+07         SATURATED ZONE =          -6554.55

 OVERALL BUDGET ERROR =          -3906.83           BUDGET ERROR =              0.36


  PERCENT DISCREPANCY =             -0.00    PERCENT DISCREPANCY =              0.00



1
 SUMMARY VOLUMETRIC BUDGET FOR GSFLOW 
 DATE: 07 26 1983              CUMULATIVE TIME STEP:    1029
 MODFLOW STRESS PERIOD      2     CURRENT TIME STEP:    1029     ITERATIONS:      10

 -----------------------------------------------------------------------------------

   CUMULATIVE VOLUMES               L**3   RATES FOR THIS TIME STEP           L**3/T
   ------------------                      ------------------------

                                     IN                                         IN
                                     --                                         --
        PRECIPITATION =        1.0968D+08          PRECIPITATION =                  
           STREAMFLOW =                               STREAMFLOW =                  
     GW BOUNDARY FLOW =                         GW BOUNDARY FLOW =                  
                WELLS =          20411.82                  WELLS =              4.63


                                    OUT                                        OUT
                                    ---                                        ---
   EVAPOTRANSPIRATION =        5.2346D+07     EVAPOTRANSPIRATION =         126152.93
           STREAMFLOW =        5.9831D+07             STREAMFLOW =          36315.87
     GW BOUNDARY FLOW =         745667.11       GW BOUNDARY FLOW =            721.92
                WELLS =         926214.03                  WELLS =            813.74

   INFLOWS - OUTFLOWS =       -4144389.07     INFLOWS - OUTFLOWS =        -163999.82
             --------                                   --------

 TOTAL STORAGE CHANGE =       -4140482.52         STORAGE CHANGE =        -163999.90
       --------------                             --------------
         LAND SURFACE =        3460573.12           LAND SURFACE =        -112829.80
            SOIL ZONE =        1836798.34              SOIL ZONE =         -44621.00
     UNSATURATED ZONE =         762137.84       UNSATURATED ZONE =             36.09
       SATURATED ZONE =       -1.0200D+07         SATURATED ZONE =          -6585.19

 OVERALL BUDGET ERROR =          -3906.55           BUDGET ERROR =              0.08


  PERCENT DISCREPANCY =             -0.00    PERCENT DISCREPANCY =              0.00



1
 SUMMARY VOLUMETRIC BUDGET FOR GSFLOW 
 DATE: 08 02 1983              CUMULATIVE TIME STEP:    1036
 MODFLOW STRESS PERIOD      2     CURRENT TIME STEP:    1036     ITERATIONS:      10

 -----------------------------------------------------------------------------------

   CUMULATIVE VOLUMES               L**3   RATES FOR THIS TIME STEP           L**3/T
   ------------------                      ------------------------

                                     IN                                         IN
                                     --                                         --
        PRECIPITATION =        1.0968D+08          PRECIPITATION =                  
           STREAMFLOW =                               STREAMFLOW =                  
     GW BOUNDARY FLOW =                         GW BOUNDARY FLOW =                  
                WELLS =          20541.44                  WELLS =             24.37


                                    OUT                                        OUT
                                    ---                                        ---
   EVAPOTRANSPIRATION =        5.3365D+07     EVAPOTRANSPIRATION =         145008.64
           STREAMFLOW =        6.0055D+07             STREAMFLOW =          26980.26
     GW BOUNDARY FLOW =         750714.78       GW BOUNDARY FLOW =            720.49
                WELLS =         934376.08                  WELLS =           1295.82

   INFLOWS - OUTFLOWS =       -5400386.96     INFLOWS - OUTFLOWS =        -173980.85
             --------                                   --------

 TOTAL STORAGE CHANGE =       -5396479.04         STORAGE CHANGE =        -173980.49
       --------------                             --------------
         LAND SURFACE =        2616540.08           LAND SURFACE =        -110975.77
            SOIL ZONE =        1481634.66              SOIL ZONE =         -53508.04
     UNSATURATED ZONE =         753662.23       UNSATURATED ZONE =          -2301.21
       SATURATED ZONE =       -1.0248D+07         SATURATED ZONE =          -7195.47

 OVERALL BUDGET ERROR =          -3907.92           BUDGET ERROR =             -0.36


  PERCENT DISCREPANCY =             -0.00    PERCENT DISCREPANCY =             -0.00



1
 SUMMARY VOLUMETRIC BUDGET FOR GSFLOW 
 DATE: 08 09 1983              CUMULATIVE TIME STEP:    1043
 MODFLOW STRESS PERIOD      2     CURRENT TIME STEP:    1043     ITERATIONS:      10

 -----------------------------------------------------------------------------------

   CUMULATIVE VOLUMES               L**3   RATES FOR THIS TIME STEP           L**3/T
   ------------------                      ------------------------

                                     IN                                         IN
                                     --                                         --
        PRECIPITATION =        1.0968D+08          PRECIPITATION =                  
           STREAMFLOW =                               STREAMFLOW =                  
     GW BOUNDARY FLOW =                         GW BOUNDARY FLOW =                  
                WELLS =          20711.97                  WELLS =             24.32


                                    OUT                                        OUT
                                    ---                                        ---
   EVAPOTRANSPIRATION =        5.4308D+07     EVAPOTRANSPIRATION =         122602.95
           STREAMFLOW =        6.0208D+07             STREAMFLOW =          18122.20
     GW BOUNDARY FLOW =         755752.27       GW BOUNDARY FLOW =            719.07
                WELLS =         943329.18                  WELLS =           1267.52

   INFLOWS - OUTFLOWS =       -6510395.28     INFLOWS - OUTFLOWS =        -142687.40
             --------                                   --------

 TOTAL STORAGE CHANGE =       -6506482.31         STORAGE CHANGE =        -142686.59
       --------------                             --------------
         LAND SURFACE =        1923205.20           LAND SURFACE =         -85103.78
            SOIL ZONE =        1141796.81              SOIL ZONE =         -45500.06
     UNSATURATED ZONE =         729760.75       UNSATURATED ZONE =          -4214.34
       SATURATED ZONE =       -1.0301D+07         SATURATED ZONE =          -7868.41

 OVERALL BUDGET ERROR =          -3912.97           BUDGET ERROR =             -0.81


  PERCENT DISCREPANCY =             -0.00    PERCENT DISCREPANCY =             -0.00



1
 SUMMARY VOLUMETRIC BUDGET FOR GSFLOW 
 DATE: 08 16 1983              CUMULATIVE TIME STEP:    1050
 MODFLOW STRESS PERIOD      2     CURRENT TIME STEP:    1050     ITERATIONS:      11

 -----------------------------------------------------------------------------------

   CUMULATIVE VOLUMES               L**3   RATES FOR THIS TIME STEP           L**3/T
   ------------------                      ------------------------

                                     IN                                         IN
                                     --                                         --
        PRECIPITATION =        1.1059D+08          PRECIPITATION =         212546.16
           STREAMFLOW =                               STREAMFLOW =                  
     GW BOUNDARY FLOW =                         GW BOUNDARY FLOW =                  
                WELLS =          20896.04                  WELLS =             30.75


                                    OUT                                        OUT
                                    ---                                        ---
   EVAPOTRANSPIRATION =        5.5155D+07     EVAPOTRANSPIRATION =         129950.64
           STREAMFLOW =        6.0393D+07             STREAMFLOW =          34946.69
     GW BOUNDARY FLOW =         760788.16       GW BOUNDARY FLOW =            719.91
                WELLS =         949160.92                  WELLS =            519.11

   INFLOWS - OUTFLOWS =       -6648281.88     INFLOWS - OUTFLOWS =          46440.56
             --------                                   --------

 TOTAL STORAGE CHANGE =       -6644361.65         STORAGE CHANGE =          46441.71
       --------------                             --------------
         LAND SURFACE =        1500096.30           LAND SURFACE =         -53374.16
            SOIL ZONE =        1498025.34              SOIL ZONE =         108012.94
     UNSATURATED ZONE =         708004.02       UNSATURATED ZONE =          -1794.72
       SATURATED ZONE =       -1.0350D+07         SATURATED ZONE =          -6402.35

 OVERALL BUDGET ERROR =          -3920.23           BUDGET ERROR =             -1.15


  PERCENT DISCREPANCY =             -0.00    PERCENT DISCREPANCY =             -0.00



1
 SUMMARY VOLUMETRIC BUDGET FOR GSFLOW 
 DATE: 08 23 1983              CUMULATIVE TIME STEP:    1057
 MODFLOW STRESS PERIOD      2     CURRENT TIME STEP:    1057     ITERATIONS:      10

 -----------------------------------------------------------------------------------

   CUMULATIVE VOLUMES               L**3   RATES FOR THIS TIME STEP           L**3/T
   ------------------                      ------------------------

                                     IN                                         IN
                                     --                                         --
        PRECIPITATION =        1.1097D+08          PRECIPITATION =                  
           STREAMFLOW =                               STREAMFLOW =                  
     GW BOUNDARY FLOW =                         GW BOUNDARY FLOW =                  
                WELLS =          21106.02                  WELLS =             29.57


                                    OUT                                        OUT
                                    ---                                        ---
   EVAPOTRANSPIRATION =        5.5830D+07     EVAPOTRANSPIRATION =          64893.54
           STREAMFLOW =        6.0537D+07             STREAMFLOW =          15352.25
     GW BOUNDARY FLOW =         765821.69       GW BOUNDARY FLOW =            718.51
                WELLS =         952768.90                  WELLS =            512.93

   INFLOWS - OUTFLOWS =       -7091474.03     INFLOWS - OUTFLOWS =         -81447.66
             --------                                   --------

 TOTAL STORAGE CHANGE =       -7087547.17         STORAGE CHANGE =         -81446.82
       --------------                             --------------
         LAND SURFACE =        1215067.10           LAND SURFACE =         -51208.85
            SOIL ZONE =        1412464.49              SOIL ZONE =         -18926.75
     UNSATURATED ZONE =         687280.29       UNSATURATED ZONE =          -3624.20
       SATURATED ZONE =       -1.0402D+07         SATURATED ZONE =          -7687.02

 OVERALL BUDGET ERROR =          -3926.86           BUDGET ERROR =             -0.84


  PERCENT DISCREPANCY =             -0.00    PERCENT DISCREPANCY =             -0.00



1
 SUMMARY VOLUMETRIC BUDGET FOR GSFLOW 
 DATE: 08 30 1983              CUMULATIVE TIME STEP:    1064
 MODFLOW STRESS PERIOD      2     CURRENT TIME STEP:    1064     ITERATIONS:       9

 -----------------------------------------------------------------------------------

   CUMULATIVE VOLUMES               L**3   RATES FOR THIS TIME STEP           L**3/T
   ------------------                      ------------------------

                                     IN                                         IN
                                     --                                         --
        PRECIPITATION =        1.1097D+08          PRECIPITATION =                  
           STREAMFLOW =                               STREAMFLOW =                  
     GW BOUNDARY FLOW =                         GW BOUNDARY FLOW =                  
                WELLS =          21307.16                  WELLS =             28.11


                                    OUT                                        OUT
                                    ---                                        ---
   EVAPOTRANSPIRATION =        5.6374D+07     EVAPOTRANSPIRATION =          77830.06
           STREAMFLOW =        6.0620D+07             STREAMFLOW =           9533.30
     GW BOUNDARY FLOW =         770845.25       GW BOUNDARY FLOW =            717.09
                WELLS =         956336.85                  WELLS =            507.42

   INFLOWS - OUTFLOWS =       -7727461.95     INFLOWS - OUTFLOWS =         -88559.77
             --------                                   --------

 TOTAL STORAGE CHANGE =       -7723527.87         STORAGE CHANGE =         -88558.40
       --------------                             --------------
         LAND SURFACE =        1022628.08           LAND SURFACE =         -29880.00
            SOIL ZONE =        1054541.36              SOIL ZONE =         -45477.40
     UNSATURATED ZONE =         656693.04       UNSATURATED ZONE =          -5099.40
       SATURATED ZONE =       -1.0457D+07         SATURATED ZONE =          -8101.60

 OVERALL BUDGET ERROR =          -3934.08           BUDGET ERROR =             -1.36


  PERCENT DISCREPANCY =             -0.00    PERCENT DISCREPANCY =             -0.00



