1
 SUMMARY VOLUMETRIC BUDGET FOR GSFLOW 
 DATE: 10 06 1983              CUMULATIVE TIME STEP:    1101
 MODFLOW STRESS PERIOD      2     CURRENT TIME STEP:    1100     ITERATIONS:      10

 -----------------------------------------------------------------------------------

   CUMULATIVE VOLUMES               L**3   RATES FOR THIS TIME STEP           L**3/T
   ------------------                      ------------------------

                                     IN                                         IN
                                     --                                         --
        PRECIPITATION =         123478.85          PRECIPITATION =                  
           STREAMFLOW =                               STREAMFLOW =                  
     GW BOUNDARY FLOW =                         GW BOUNDARY FLOW =                  
                WELLS =            112.02                  WELLS =             25.34


                                    OUT                                        OUT
                                    ---                                        ---
   EVAPOTRANSPIRATION =         400379.22     EVAPOTRANSPIRATION =          90279.76
           STREAMFLOW =          38222.89             STREAMFLOW =           4828.65
     GW BOUNDARY FLOW =           5020.37       GW BOUNDARY FLOW =            717.21
                WELLS =           6878.01                  WELLS =           1315.06

   INFLOWS - OUTFLOWS =        -326909.63     INFLOWS - OUTFLOWS =         -97115.34
             --------                                   --------

 TOTAL STORAGE CHANGE =        -326886.43         STORAGE CHANGE =         -97112.48
       --------------                             --------------
         LAND SURFACE =         -43997.53           LAND SURFACE =           -942.88
            SOIL ZONE =        -173798.49              SOIL ZONE =         -80274.48
     UNSATURATED ZONE =         -44495.95       UNSATURATED ZONE =          -6240.82
       SATURATED ZONE =         -64594.46         SATURATED ZONE =          -9654.30

 OVERALL BUDGET ERROR =            -23.20           BUDGET ERROR =             -2.86


  PERCENT DISCREPANCY =             -0.01    PERCENT DISCREPANCY =             -0.00



