1
 SUMMARY VOLUMETRIC BUDGET FOR GSFLOW 
 DATE: 10 07 1980              CUMULATIVE TIME STEP:       7
 MODFLOW STRESS PERIOD      2     CURRENT TIME STEP:       7     ITERATIONS:      12

 -----------------------------------------------------------------------------------

   CUMULATIVE VOLUMES               L**3   RATES FOR THIS TIME STEP           L**3/T
   ------------------                      ------------------------

                                     IN                                         IN
                                     --                                         --
        PRECIPITATION =                            PRECIPITATION =                  
           STREAMFLOW =                               STREAMFLOW =                  
     GW BOUNDARY FLOW =                         GW BOUNDARY FLOW =                  
                WELLS =              2.61                  WELLS =              0.38


                                    OUT                                        OUT
                                    ---                                        ---
   EVAPOTRANSPIRATION =          66255.25     EVAPOTRANSPIRATION =           9365.97
           STREAMFLOW =          40890.24             STREAMFLOW =           5688.54
     GW BOUNDARY FLOW =           5067.54       GW BOUNDARY FLOW =            723.82
                WELLS =          16940.66                  WELLS =           2303.51

   INFLOWS - OUTFLOWS =        -129151.09     INFLOWS - OUTFLOWS =         -18081.46
             --------                                   --------

 TOTAL STORAGE CHANGE =        -128924.63         STORAGE CHANGE =         -18049.44
       --------------                             --------------
         LAND SURFACE =                             LAND SURFACE =                  
            SOIL ZONE =          43743.73              SOIL ZONE =           6238.07
     UNSATURATED ZONE =        -144187.04       UNSATURATED ZONE =         -20266.32
       SATURATED ZONE =         -28481.32         SATURATED ZONE =          -4021.19

 OVERALL BUDGET ERROR =           -226.46           BUDGET ERROR =            -32.02


  PERCENT DISCREPANCY =             -0.18    PERCENT DISCREPANCY =             -0.18



1
 SUMMARY VOLUMETRIC BUDGET FOR GSFLOW 
 DATE: 10 14 1980              CUMULATIVE TIME STEP:      14
 MODFLOW STRESS PERIOD      2     CURRENT TIME STEP:      14     ITERATIONS:      12

 -----------------------------------------------------------------------------------

   CUMULATIVE VOLUMES               L**3   RATES FOR THIS TIME STEP           L**3/T
   ------------------                      ------------------------

                                     IN                                         IN
                                     --                                         --
        PRECIPITATION =         403289.47          PRECIPITATION =         174040.42
           STREAMFLOW =                               STREAMFLOW =                  
     GW BOUNDARY FLOW =                         GW BOUNDARY FLOW =                  
                WELLS =              5.25                  WELLS =              0.38


                                    OUT                                        OUT
                                    ---                                        ---
   EVAPOTRANSPIRATION =         143347.40     EVAPOTRANSPIRATION =           5462.53
           STREAMFLOW =          84319.41             STREAMFLOW =           6976.52
     GW BOUNDARY FLOW =          10134.18       GW BOUNDARY FLOW =            723.90
                WELLS =          32362.84                  WELLS =           2136.36

   INFLOWS - OUTFLOWS =         133130.88     INFLOWS - OUTFLOWS =         158741.48
             --------                                   --------

 TOTAL STORAGE CHANGE =         133576.86         STORAGE CHANGE =         158772.39
       --------------                             --------------
         LAND SURFACE =         150822.71           LAND SURFACE =         106712.04
            SOIL ZONE =         322718.07              SOIL ZONE =          75648.75
     UNSATURATED ZONE =        -282947.15       UNSATURATED ZONE =         -19478.31
       SATURATED ZONE =         -57016.77         SATURATED ZONE =          -4110.10

 OVERALL BUDGET ERROR =           -445.98           BUDGET ERROR =            -30.90


  PERCENT DISCREPANCY =             -0.11    PERCENT DISCREPANCY =             -0.02



1
 SUMMARY VOLUMETRIC BUDGET FOR GSFLOW 
 DATE: 10 21 1980              CUMULATIVE TIME STEP:      21
 MODFLOW STRESS PERIOD      2     CURRENT TIME STEP:      21     ITERATIONS:      12

 -----------------------------------------------------------------------------------

   CUMULATIVE VOLUMES               L**3   RATES FOR THIS TIME STEP           L**3/T
   ------------------                      ------------------------

                                     IN                                         IN
                                     --                                         --
        PRECIPITATION =         704278.11          PRECIPITATION =                  
           STREAMFLOW =                               STREAMFLOW =                  
     GW BOUNDARY FLOW =                         GW BOUNDARY FLOW =                  
                WELLS =             67.62                  WELLS =              0.38


                                    OUT                                        OUT
                                    ---                                        ---
   EVAPOTRANSPIRATION =         370204.09     EVAPOTRANSPIRATION =          46152.92
           STREAMFLOW =         133789.38             STREAMFLOW =           6867.01
     GW BOUNDARY FLOW =          15201.53       GW BOUNDARY FLOW =            723.90
                WELLS =          45987.89                  WELLS =           2066.04

   INFLOWS - OUTFLOWS =         139162.84     INFLOWS - OUTFLOWS =         -55809.50
             --------                                   --------

 TOTAL STORAGE CHANGE =         139814.14         STORAGE CHANGE =         -55781.20
       --------------                             --------------
         LAND SURFACE =           4707.69           LAND SURFACE =          -7723.14
            SOIL ZONE =         637751.23              SOIL ZONE =         -24686.56
     UNSATURATED ZONE =        -416137.57       UNSATURATED ZONE =         -18663.54
       SATURATED ZONE =         -86507.21         SATURATED ZONE =          -4707.98

 OVERALL BUDGET ERROR =           -651.30           BUDGET ERROR =            -28.30


  PERCENT DISCREPANCY =             -0.09    PERCENT DISCREPANCY =             -0.05



1
 SUMMARY VOLUMETRIC BUDGET FOR GSFLOW 
 DATE: 10 28 1980              CUMULATIVE TIME STEP:      28
 MODFLOW STRESS PERIOD      2     CURRENT TIME STEP:      28     ITERATIONS:      22

 -----------------------------------------------------------------------------------

   CUMULATIVE VOLUMES               L**3   RATES FOR THIS TIME STEP           L**3/T
   ------------------                      ------------------------

                                     IN                                         IN
                                     --                                         --
        PRECIPITATION =         893052.32          PRECIPITATION =                  
           STREAMFLOW =                               STREAMFLOW =                  
     GW BOUNDARY FLOW =                         GW BOUNDARY FLOW =                  
                WELLS =             70.27                  WELLS =              0.38


                                    OUT                                        OUT
                                    ---                                        ---
   EVAPOTRANSPIRATION =         561607.53     EVAPOTRANSPIRATION =          26660.62
           STREAMFLOW =         180823.56             STREAMFLOW =           6921.51
     GW BOUNDARY FLOW =          20267.92       GW BOUNDARY FLOW =            723.77
                WELLS =          59488.26                  WELLS =           1920.99

   INFLOWS - OUTFLOWS =          70935.32     INFLOWS - OUTFLOWS =         -36226.50
             --------                                   --------

 TOTAL STORAGE CHANGE =          71779.47         STORAGE CHANGE =         -36199.60
       --------------                             --------------
         LAND SURFACE =          19525.55           LAND SURFACE =         -38596.18
            SOIL ZONE =         716453.41              SOIL ZONE =          25325.95
     UNSATURATED ZONE =        -543536.36       UNSATURATED ZONE =         -17893.80
       SATURATED ZONE =        -120663.13         SATURATED ZONE =          -5035.57

 OVERALL BUDGET ERROR =           -844.15           BUDGET ERROR =            -26.91


  PERCENT DISCREPANCY =             -0.09    PERCENT DISCREPANCY =             -0.07



1
 SUMMARY VOLUMETRIC BUDGET FOR GSFLOW 
 DATE: 11 04 1980              CUMULATIVE TIME STEP:      35
 MODFLOW STRESS PERIOD      2     CURRENT TIME STEP:      35     ITERATIONS:      11

 -----------------------------------------------------------------------------------

   CUMULATIVE VOLUMES               L**3   RATES FOR THIS TIME STEP           L**3/T
   ------------------                      ------------------------

                                     IN                                         IN
                                     --                                         --
        PRECIPITATION =         893052.32          PRECIPITATION =                  
           STREAMFLOW =                               STREAMFLOW =                  
     GW BOUNDARY FLOW =                         GW BOUNDARY FLOW =                  
                WELLS =            125.15                  WELLS =              0.38


                                    OUT                                        OUT
                                    ---                                        ---
   EVAPOTRANSPIRATION =         827877.87     EVAPOTRANSPIRATION =          40337.50
           STREAMFLOW =         227040.86             STREAMFLOW =           6251.76
     GW BOUNDARY FLOW =          25333.71       GW BOUNDARY FLOW =            723.61
                WELLS =          71590.38                  WELLS =           1744.02

   INFLOWS - OUTFLOWS =        -258665.35     INFLOWS - OUTFLOWS =         -49056.51
             --------                                   --------

 TOTAL STORAGE CHANGE =        -257637.69         STORAGE CHANGE =         -49030.86
       --------------                             --------------
         LAND SURFACE =                             LAND SURFACE =                  
            SOIL ZONE =         565596.95              SOIL ZONE =         -26369.72
     UNSATURATED ZONE =        -665819.77       UNSATURATED ZONE =         -17179.66
       SATURATED ZONE =        -157414.87         SATURATED ZONE =          -5481.49

 OVERALL BUDGET ERROR =          -1027.66           BUDGET ERROR =            -25.64


  PERCENT DISCREPANCY =             -0.09    PERCENT DISCREPANCY =             -0.05



1
 SUMMARY VOLUMETRIC BUDGET FOR GSFLOW 
 DATE: 11 11 1980              CUMULATIVE TIME STEP:      42
 MODFLOW STRESS PERIOD      2     CURRENT TIME STEP:      42     ITERATIONS:      11

 -----------------------------------------------------------------------------------

   CUMULATIVE VOLUMES               L**3   RATES FOR THIS TIME STEP           L**3/T
   ------------------                      ------------------------

                                     IN                                         IN
                                     --                                         --
        PRECIPITATION =        1445195.46          PRECIPITATION =         164672.55
           STREAMFLOW =                               STREAMFLOW =                  
     GW BOUNDARY FLOW =                         GW BOUNDARY FLOW =                  
                WELLS =            127.84                  WELLS =              0.38


                                    OUT                                        OUT
                                    ---                                        ---
   EVAPOTRANSPIRATION =        1059949.97     EVAPOTRANSPIRATION =          16589.00
           STREAMFLOW =         281123.70             STREAMFLOW =           9081.24
     GW BOUNDARY FLOW =          30400.03       GW BOUNDARY FLOW =            723.93
                WELLS =          84234.77                  WELLS =           1778.11

   INFLOWS - OUTFLOWS =         -10385.17     INFLOWS - OUTFLOWS =         136500.65
             --------                                   --------

 TOTAL STORAGE CHANGE =          -9182.99         STORAGE CHANGE =         136524.68
       --------------                             --------------
         LAND SURFACE =          69010.13           LAND SURFACE =          66606.95
            SOIL ZONE =         901364.98              SOIL ZONE =          91918.84
     UNSATURATED ZONE =        -783305.42       UNSATURATED ZONE =         -16474.61
       SATURATED ZONE =        -196252.67         SATURATED ZONE =          -5526.50

 OVERALL BUDGET ERROR =          -1202.18           BUDGET ERROR =            -24.04


  PERCENT DISCREPANCY =             -0.08    PERCENT DISCREPANCY =             -0.01



1
 SUMMARY VOLUMETRIC BUDGET FOR GSFLOW 
 DATE: 11 18 1980              CUMULATIVE TIME STEP:      49
 MODFLOW STRESS PERIOD      2     CURRENT TIME STEP:      49     ITERATIONS:      11

 -----------------------------------------------------------------------------------

   CUMULATIVE VOLUMES               L**3   RATES FOR THIS TIME STEP           L**3/T
   ------------------                      ------------------------

                                     IN                                         IN
                                     --                                         --
        PRECIPITATION =        1527531.73          PRECIPITATION =                  
           STREAMFLOW =                               STREAMFLOW =                  
     GW BOUNDARY FLOW =                         GW BOUNDARY FLOW =                  
                WELLS =            185.18                  WELLS =             22.71


                                    OUT                                        OUT
                                    ---                                        ---
   EVAPOTRANSPIRATION =        1166884.46     EVAPOTRANSPIRATION =          23721.25
           STREAMFLOW =         340918.47             STREAMFLOW =           8687.12
     GW BOUNDARY FLOW =          35467.77       GW BOUNDARY FLOW =            723.98
                WELLS =          95749.55                  WELLS =           1367.76

   INFLOWS - OUTFLOWS =        -111303.33     INFLOWS - OUTFLOWS =         -34477.40
             --------                                   --------

 TOTAL STORAGE CHANGE =        -109939.76         STORAGE CHANGE =         -34454.40
       --------------                             --------------
         LAND SURFACE =            700.96           LAND SURFACE =          -5282.99
            SOIL ZONE =        1022320.31              SOIL ZONE =          -7592.50
     UNSATURATED ZONE =        -895893.29       UNSATURATED ZONE =         -15799.20
       SATURATED ZONE =        -237067.74         SATURATED ZONE =          -5779.71

 OVERALL BUDGET ERROR =          -1363.57           BUDGET ERROR =            -23.00


  PERCENT DISCREPANCY =             -0.08    PERCENT DISCREPANCY =             -0.07



1
 SUMMARY VOLUMETRIC BUDGET FOR GSFLOW 
 DATE: 11 25 1980              CUMULATIVE TIME STEP:      56
 MODFLOW STRESS PERIOD      2     CURRENT TIME STEP:      56     ITERATIONS:      16

 -----------------------------------------------------------------------------------

   CUMULATIVE VOLUMES               L**3   RATES FOR THIS TIME STEP           L**3/T
   ------------------                      ------------------------

                                     IN                                         IN
                                     --                                         --
        PRECIPITATION =        1583878.73          PRECIPITATION =                  
           STREAMFLOW =                               STREAMFLOW =                  
     GW BOUNDARY FLOW =                         GW BOUNDARY FLOW =                  
                WELLS =            330.11                  WELLS =             20.91


                                    OUT                                        OUT
                                    ---                                        ---
   EVAPOTRANSPIRATION =        1275816.04     EVAPOTRANSPIRATION =          12836.18
           STREAMFLOW =         400159.94             STREAMFLOW =           8432.53
     GW BOUNDARY FLOW =          40535.40       GW BOUNDARY FLOW =            723.93
                WELLS =         105213.72                  WELLS =           1341.07

   INFLOWS - OUTFLOWS =        -237516.26     INFLOWS - OUTFLOWS =         -23312.80
             --------                                   --------

 TOTAL STORAGE CHANGE =        -235997.22         STORAGE CHANGE =         -23291.35
       --------------                             --------------
         LAND SURFACE =          41331.68           LAND SURFACE =         -13377.01
            SOIL ZONE =        1006550.98              SOIL ZONE =          11575.40
     UNSATURATED ZONE =       -1004221.69       UNSATURATED ZONE =         -15206.62
       SATURATED ZONE =        -279658.19         SATURATED ZONE =          -6283.12

 OVERALL BUDGET ERROR =          -1519.04           BUDGET ERROR =            -21.44


  PERCENT DISCREPANCY =             -0.08    PERCENT DISCREPANCY =             -0.09



1
 SUMMARY VOLUMETRIC BUDGET FOR GSFLOW 
 DATE: 12 02 1980              CUMULATIVE TIME STEP:      63
 MODFLOW STRESS PERIOD      2     CURRENT TIME STEP:      63     ITERATIONS:      11

 -----------------------------------------------------------------------------------

   CUMULATIVE VOLUMES               L**3   RATES FOR THIS TIME STEP           L**3/T
   ------------------                      ------------------------

                                     IN                                         IN
                                     --                                         --
        PRECIPITATION =        2084797.03          PRECIPITATION =         217997.75
           STREAMFLOW =                               STREAMFLOW =                  
     GW BOUNDARY FLOW =                         GW BOUNDARY FLOW =                  
                WELLS =            479.11                  WELLS =             21.55


                                    OUT                                        OUT
                                    ---                                        ---
   EVAPOTRANSPIRATION =        1434250.88     EVAPOTRANSPIRATION =           9909.91
           STREAMFLOW =         469651.39             STREAMFLOW =          11694.94
     GW BOUNDARY FLOW =          45604.05       GW BOUNDARY FLOW =            724.35
                WELLS =         114513.01                  WELLS =           1319.69

   INFLOWS - OUTFLOWS =          21256.81     INFLOWS - OUTFLOWS =         194370.41
             --------                                   --------

 TOTAL STORAGE CHANGE =          22919.55         STORAGE CHANGE =         194390.63
       --------------                             --------------
         LAND SURFACE =         279295.42           LAND SURFACE =         190220.63
            SOIL ZONE =        1175787.28              SOIL ZONE =          25010.44
     UNSATURATED ZONE =       -1108076.08       UNSATURATED ZONE =         -14453.33
       SATURATED ZONE =        -324087.06         SATURATED ZONE =          -6387.11

 OVERALL BUDGET ERROR =          -1662.74           BUDGET ERROR =            -20.22


  PERCENT DISCREPANCY =             -0.08    PERCENT DISCREPANCY =             -0.01



1
 SUMMARY VOLUMETRIC BUDGET FOR GSFLOW 
 DATE: 12 09 1980              CUMULATIVE TIME STEP:      70
 MODFLOW STRESS PERIOD      2     CURRENT TIME STEP:      70     ITERATIONS:      11

 -----------------------------------------------------------------------------------

   CUMULATIVE VOLUMES               L**3   RATES FOR THIS TIME STEP           L**3/T
   ------------------                      ------------------------

                                     IN                                         IN
                                     --                                         --
        PRECIPITATION =        3709398.40          PRECIPITATION =                  
           STREAMFLOW =                               STREAMFLOW =                  
     GW BOUNDARY FLOW =                         GW BOUNDARY FLOW =                  
                WELLS =            632.20                  WELLS =             22.09


                                    OUT                                        OUT
                                    ---                                        ---
   EVAPOTRANSPIRATION =        1471513.28     EVAPOTRANSPIRATION =          12841.84
           STREAMFLOW =         551312.30             STREAMFLOW =          12115.66
     GW BOUNDARY FLOW =          50675.30       GW BOUNDARY FLOW =            724.55
                WELLS =         123679.33                  WELLS =           1302.30

   INFLOWS - OUTFLOWS =        1512850.39     INFLOWS - OUTFLOWS =         -26962.26
             --------                                   --------

 TOTAL STORAGE CHANGE =        1514642.57         STORAGE CHANGE =         -26944.30
       --------------                             --------------
         LAND SURFACE =        1866133.16           LAND SURFACE =         -12841.84
            SOIL ZONE =        1226193.12              SOIL ZONE =           6652.24
     UNSATURATED ZONE =       -1207250.45       UNSATURATED ZONE =         -13980.89
       SATURATED ZONE =        -370433.26         SATURATED ZONE =          -6773.81

 OVERALL BUDGET ERROR =          -1792.18           BUDGET ERROR =            -17.96


  PERCENT DISCREPANCY =             -0.05    PERCENT DISCREPANCY =             -0.07



1
 SUMMARY VOLUMETRIC BUDGET FOR GSFLOW 
 DATE: 12 16 1980              CUMULATIVE TIME STEP:      77
 MODFLOW STRESS PERIOD      2     CURRENT TIME STEP:      77     ITERATIONS:      28

 -----------------------------------------------------------------------------------

   CUMULATIVE VOLUMES               L**3   RATES FOR THIS TIME STEP           L**3/T
   ------------------                      ------------------------

                                     IN                                         IN
                                     --                                         --
        PRECIPITATION =        3709398.40          PRECIPITATION =                  
           STREAMFLOW =                               STREAMFLOW =                  
     GW BOUNDARY FLOW =                         GW BOUNDARY FLOW =                  
                WELLS =            788.65                  WELLS =             22.52


                                    OUT                                        OUT
                                    ---                                        ---
   EVAPOTRANSPIRATION =        1683973.92     EVAPOTRANSPIRATION =          45947.83
           STREAMFLOW =         691967.91             STREAMFLOW =          37203.39
     GW BOUNDARY FLOW =          55751.75       GW BOUNDARY FLOW =            726.60
                WELLS =         132736.62                  WELLS =           1288.02

   INFLOWS - OUTFLOWS =        1145756.85     INFLOWS - OUTFLOWS =         -85143.31
             --------                                   --------

 TOTAL STORAGE CHANGE =        1147674.21         STORAGE CHANGE =         -85125.80
       --------------                             --------------
         LAND SURFACE =        1097394.58           LAND SURFACE =        -242595.28
            SOIL ZONE =        1765184.33              SOIL ZONE =         174769.23
     UNSATURATED ZONE =       -1298403.36       UNSATURATED ZONE =         -11419.76
       SATURATED ZONE =        -416501.34         SATURATED ZONE =          -5879.99

 OVERALL BUDGET ERROR =          -1917.36           BUDGET ERROR =            -17.51


  PERCENT DISCREPANCY =             -0.05    PERCENT DISCREPANCY =             -0.02



1
 SUMMARY VOLUMETRIC BUDGET FOR GSFLOW 
 DATE: 12 23 1980              CUMULATIVE TIME STEP:      84
 MODFLOW STRESS PERIOD      2     CURRENT TIME STEP:      84     ITERATIONS:      12

 -----------------------------------------------------------------------------------

   CUMULATIVE VOLUMES               L**3   RATES FOR THIS TIME STEP           L**3/T
   ------------------                      ------------------------

                                     IN                                         IN
                                     --                                         --
        PRECIPITATION =        3709398.40          PRECIPITATION =                  
           STREAMFLOW =                               STREAMFLOW =                  
     GW BOUNDARY FLOW =                         GW BOUNDARY FLOW =                  
                WELLS =            947.82                  WELLS =             22.89


                                    OUT                                        OUT
                                    ---                                        ---
   EVAPOTRANSPIRATION =        1911600.74     EVAPOTRANSPIRATION =          32126.52
           STREAMFLOW =         945987.56             STREAMFLOW =          29811.78
     GW BOUNDARY FLOW =          60845.65       GW BOUNDARY FLOW =            727.59
                WELLS =         141703.90                  WELLS =           1276.05

   INFLOWS - OUTFLOWS =         650208.36     INFLOWS - OUTFLOWS =         -63919.04
             --------                                   --------

 TOTAL STORAGE CHANGE =         652239.92         STORAGE CHANGE =         -63903.23
       --------------                             --------------
         LAND SURFACE =         399376.42           LAND SURFACE =         -51279.29
            SOIL ZONE =        2087303.58              SOIL ZONE =           4804.14
     UNSATURATED ZONE =       -1371131.08       UNSATURATED ZONE =         -10257.99
       SATURATED ZONE =        -463308.99         SATURATED ZONE =          -7170.09

 OVERALL BUDGET ERROR =          -2031.56           BUDGET ERROR =            -15.81


  PERCENT DISCREPANCY =             -0.05    PERCENT DISCREPANCY =             -0.02



1
 SUMMARY VOLUMETRIC BUDGET FOR GSFLOW 
 DATE: 12 30 1980              CUMULATIVE TIME STEP:      91
 MODFLOW STRESS PERIOD      2     CURRENT TIME STEP:      91     ITERATIONS:      27

 -----------------------------------------------------------------------------------

   CUMULATIVE VOLUMES               L**3   RATES FOR THIS TIME STEP           L**3/T
   ------------------                      ------------------------

                                     IN                                         IN
                                     --                                         --
        PRECIPITATION =        3709398.40          PRECIPITATION =                  
           STREAMFLOW =                               STREAMFLOW =                  
     GW BOUNDARY FLOW =                         GW BOUNDARY FLOW =                  
                WELLS =           1125.55                  WELLS =             27.21


                                    OUT                                        OUT
                                    ---                                        ---
   EVAPOTRANSPIRATION =        2270541.60     EVAPOTRANSPIRATION =          56329.85
           STREAMFLOW =        1129598.74             STREAMFLOW =          20569.51
     GW BOUNDARY FLOW =          65935.28       GW BOUNDARY FLOW =            726.51
                WELLS =         149159.31                  WELLS =            908.01

   INFLOWS - OUTFLOWS =          95289.02     INFLOWS - OUTFLOWS =         -78506.69
             --------                                   --------

 TOTAL STORAGE CHANGE =          97426.12         STORAGE CHANGE =         -78490.98
       --------------                             --------------
         LAND SURFACE =          46840.59           LAND SURFACE =         -16420.20
            SOIL ZONE =        2006309.84              SOIL ZONE =         -44017.68
     UNSATURATED ZONE =       -1441421.19       UNSATURATED ZONE =         -10383.55
       SATURATED ZONE =        -514303.13         SATURATED ZONE =          -7669.55

 OVERALL BUDGET ERROR =          -2137.10           BUDGET ERROR =            -15.71


  PERCENT DISCREPANCY =             -0.06    PERCENT DISCREPANCY =             -0.02



1
 SUMMARY VOLUMETRIC BUDGET FOR GSFLOW 
 DATE: 01 06 1981              CUMULATIVE TIME STEP:      98
 MODFLOW STRESS PERIOD      2     CURRENT TIME STEP:      98     ITERATIONS:      11

 -----------------------------------------------------------------------------------

   CUMULATIVE VOLUMES               L**3   RATES FOR THIS TIME STEP           L**3/T
   ------------------                      ------------------------

                                     IN                                         IN
                                     --                                         --
        PRECIPITATION =        3929400.55          PRECIPITATION =                  
           STREAMFLOW =                               STREAMFLOW =                  
     GW BOUNDARY FLOW =                         GW BOUNDARY FLOW =                  
                WELLS =           1313.41                  WELLS =             26.54


                                    OUT                                        OUT
                                    ---                                        ---
   EVAPOTRANSPIRATION =        2546807.96     EVAPOTRANSPIRATION =          31283.68
           STREAMFLOW =        1249265.19             STREAMFLOW =          16843.31
     GW BOUNDARY FLOW =          71015.81       GW BOUNDARY FLOW =            725.61
                WELLS =         155489.47                  WELLS =            901.63

   INFLOWS - OUTFLOWS =         -91864.49     INFLOWS - OUTFLOWS =         -49727.69
             --------                                   --------

 TOTAL STORAGE CHANGE =         -89629.28         STORAGE CHANGE =         -49714.49
       --------------                             --------------
         LAND SURFACE =          32482.47           LAND SURFACE =         -26549.78
            SOIL ZONE =        1965636.17              SOIL ZONE =          -4238.05
     UNSATURATED ZONE =       -1518448.12       UNSATURATED ZONE =         -10901.24
       SATURATED ZONE =        -569299.80         SATURATED ZONE =          -8025.42

 OVERALL BUDGET ERROR =          -2235.21           BUDGET ERROR =            -13.21


  PERCENT DISCREPANCY =             -0.06    PERCENT DISCREPANCY =             -0.03



1
 SUMMARY VOLUMETRIC BUDGET FOR GSFLOW 
 DATE: 01 13 1981              CUMULATIVE TIME STEP:     105
 MODFLOW STRESS PERIOD      2     CURRENT TIME STEP:     105     ITERATIONS:      22

 -----------------------------------------------------------------------------------

   CUMULATIVE VOLUMES               L**3   RATES FOR THIS TIME STEP           L**3/T
   ------------------                      ------------------------

                                     IN                                         IN
                                     --                                         --
        PRECIPITATION =        3929400.55          PRECIPITATION =                  
           STREAMFLOW =                               STREAMFLOW =                  
     GW BOUNDARY FLOW =                         GW BOUNDARY FLOW =                  
                WELLS =           1496.51                  WELLS =             25.88


                                    OUT                                        OUT
                                    ---                                        ---
   EVAPOTRANSPIRATION =        2807595.00     EVAPOTRANSPIRATION =          39187.95
           STREAMFLOW =        1351924.07             STREAMFLOW =          12595.09
     GW BOUNDARY FLOW =          76093.00       GW BOUNDARY FLOW =            725.01
                WELLS =         161777.99                  WELLS =            896.00

   INFLOWS - OUTFLOWS =        -466492.99     INFLOWS - OUTFLOWS =         -53378.18
             --------                                   --------

 TOTAL STORAGE CHANGE =        -464161.63         STORAGE CHANGE =         -53364.04
       --------------                             --------------
         LAND SURFACE =          17582.14           LAND SURFACE =           -706.27
            SOIL ZONE =        1742682.64              SOIL ZONE =         -32683.81
     UNSATURATED ZONE =       -1595937.22       UNSATURATED ZONE =         -11232.15
       SATURATED ZONE =        -628489.18         SATURATED ZONE =          -8741.81

 OVERALL BUDGET ERROR =          -2331.36           BUDGET ERROR =            -14.14


  PERCENT DISCREPANCY =             -0.05    PERCENT DISCREPANCY =             -0.03



1
 SUMMARY VOLUMETRIC BUDGET FOR GSFLOW 
 DATE: 01 20 1981              CUMULATIVE TIME STEP:     112
 MODFLOW STRESS PERIOD      2     CURRENT TIME STEP:     112     ITERATIONS:      12

 -----------------------------------------------------------------------------------

   CUMULATIVE VOLUMES               L**3   RATES FOR THIS TIME STEP           L**3/T
   ------------------                      ------------------------

                                     IN                                         IN
                                     --                                         --
        PRECIPITATION =        3934797.64          PRECIPITATION =                  
           STREAMFLOW =                               STREAMFLOW =                  
     GW BOUNDARY FLOW =                         GW BOUNDARY FLOW =                  
                WELLS =           1675.17                  WELLS =             25.26


                                    OUT                                        OUT
                                    ---                                        ---
   EVAPOTRANSPIRATION =        3080597.81     EVAPOTRANSPIRATION =          41927.05
           STREAMFLOW =        1424914.71             STREAMFLOW =           9142.70
     GW BOUNDARY FLOW =          81165.70       GW BOUNDARY FLOW =            724.44
                WELLS =         168029.74                  WELLS =            891.02

   INFLOWS - OUTFLOWS =        -818235.16     INFLOWS - OUTFLOWS =         -52659.93
             --------                                   --------

 TOTAL STORAGE CHANGE =        -815813.89         STORAGE CHANGE =         -52647.72
       --------------                             --------------
         LAND SURFACE =          11815.04           LAND SURFACE =          -1440.69
            SOIL ZONE =        1537698.11              SOIL ZONE =         -31052.72
     UNSATURATED ZONE =       -1673848.97       UNSATURATED ZONE =         -11012.10
       SATURATED ZONE =        -691478.06         SATURATED ZONE =          -9142.22

 OVERALL BUDGET ERROR =          -2421.27           BUDGET ERROR =            -12.21


  PERCENT DISCREPANCY =             -0.05    PERCENT DISCREPANCY =             -0.02



1
 SUMMARY VOLUMETRIC BUDGET FOR GSFLOW 
 DATE: 01 27 1981              CUMULATIVE TIME STEP:     119
 MODFLOW STRESS PERIOD      2     CURRENT TIME STEP:     119     ITERATIONS:      12

 -----------------------------------------------------------------------------------

   CUMULATIVE VOLUMES               L**3   RATES FOR THIS TIME STEP           L**3/T
   ------------------                      ------------------------

                                     IN                                         IN
                                     --                                         --
        PRECIPITATION =        6080782.22          PRECIPITATION =        1101441.08
           STREAMFLOW =                               STREAMFLOW =                  
     GW BOUNDARY FLOW =                         GW BOUNDARY FLOW =                  
                WELLS =           1845.98                  WELLS =             23.94


                                    OUT                                        OUT
                                    ---                                        ---
   EVAPOTRANSPIRATION =        3235137.25     EVAPOTRANSPIRATION =          10796.48
           STREAMFLOW =        1497888.80             STREAMFLOW =          11230.33
     GW BOUNDARY FLOW =          86236.97       GW BOUNDARY FLOW =            724.56
                WELLS =         175953.43                  WELLS =           1303.74

   INFLOWS - OUTFLOWS =        1087411.74     INFLOWS - OUTFLOWS =        1077409.92
             --------                                   --------

 TOTAL STORAGE CHANGE =        1089912.45         STORAGE CHANGE =        1077420.31
       --------------                             --------------
         LAND SURFACE =        1935274.24           LAND SURFACE =        1090644.60
            SOIL ZONE =        1660415.40              SOIL ZONE =           6864.54
     UNSATURATED ZONE =       -1748140.27       UNSATURATED ZONE =         -10414.39
       SATURATED ZONE =        -757636.92         SATURATED ZONE =          -9674.45

 OVERALL BUDGET ERROR =          -2500.71           BUDGET ERROR =            -10.38


  PERCENT DISCREPANCY =             -0.04    PERCENT DISCREPANCY =             -0.00



1
 SUMMARY VOLUMETRIC BUDGET FOR GSFLOW 
 DATE: 02 03 1981              CUMULATIVE TIME STEP:     126
 MODFLOW STRESS PERIOD      2     CURRENT TIME STEP:     126     ITERATIONS:      12

 -----------------------------------------------------------------------------------

   CUMULATIVE VOLUMES               L**3   RATES FOR THIS TIME STEP           L**3/T
   ------------------                      ------------------------

                                     IN                                         IN
                                     --                                         --
        PRECIPITATION =        8802115.43          PRECIPITATION =                  
           STREAMFLOW =                               STREAMFLOW =                  
     GW BOUNDARY FLOW =                         GW BOUNDARY FLOW =                  
                WELLS =           1982.47                  WELLS =              9.98


                                    OUT                                        OUT
                                    ---                                        ---
   EVAPOTRANSPIRATION =        3284157.65     EVAPOTRANSPIRATION =          13261.65
           STREAMFLOW =        1586877.02             STREAMFLOW =          13775.62
     GW BOUNDARY FLOW =          91310.11       GW BOUNDARY FLOW =            724.88
                WELLS =         184020.62                  WELLS =            800.41

   INFLOWS - OUTFLOWS =        3657732.49     INFLOWS - OUTFLOWS =         -28552.59
             --------                                   --------

 TOTAL STORAGE CHANGE =        3660303.70         STORAGE CHANGE =         -28542.73
       --------------                             --------------
         LAND SURFACE =        4607587.05           LAND SURFACE =         -13261.65
            SOIL ZONE =        1697349.91              SOIL ZONE =           4209.01
     UNSATURATED ZONE =       -1819560.43       UNSATURATED ZONE =         -10034.64
       SATURATED ZONE =        -825072.83         SATURATED ZONE =          -9455.44

 OVERALL BUDGET ERROR =          -2571.21           BUDGET ERROR =             -9.86


  PERCENT DISCREPANCY =             -0.03    PERCENT DISCREPANCY =             -0.03



1
 SUMMARY VOLUMETRIC BUDGET FOR GSFLOW 
 DATE: 02 10 1981              CUMULATIVE TIME STEP:     133
 MODFLOW STRESS PERIOD      2     CURRENT TIME STEP:     133     ITERATIONS:      12

 -----------------------------------------------------------------------------------

   CUMULATIVE VOLUMES               L**3   RATES FOR THIS TIME STEP           L**3/T
   ------------------                      ------------------------

                                     IN                                         IN
                                     --                                         --
        PRECIPITATION =        8811949.58          PRECIPITATION =                  
           STREAMFLOW =                               STREAMFLOW =                  
     GW BOUNDARY FLOW =                         GW BOUNDARY FLOW =                  
                WELLS =           2072.53                  WELLS =             12.65


                                    OUT                                        OUT
                                    ---                                        ---
   EVAPOTRANSPIRATION =        3392436.18     EVAPOTRANSPIRATION =          21067.61
           STREAMFLOW =        1689699.09             STREAMFLOW =          15200.17
     GW BOUNDARY FLOW =          96385.31       GW BOUNDARY FLOW =            725.11
                WELLS =         189582.51                  WELLS =            788.05

   INFLOWS - OUTFLOWS =        3445919.02     INFLOWS - OUTFLOWS =         -37768.28
             --------                                   --------

 TOTAL STORAGE CHANGE =        3448554.05         STORAGE CHANGE =         -37759.29
       --------------                             --------------
         LAND SURFACE =        4509142.67           LAND SURFACE =         -21067.61
            SOIL ZONE =        1720101.52              SOIL ZONE =           2708.36
     UNSATURATED ZONE =       -1888007.45       UNSATURATED ZONE =          -9588.91
       SATURATED ZONE =        -892682.68         SATURATED ZONE =          -9811.14

 OVERALL BUDGET ERROR =          -2635.03           BUDGET ERROR =             -8.99


  PERCENT DISCREPANCY =             -0.03    PERCENT DISCREPANCY =             -0.02



1
 SUMMARY VOLUMETRIC BUDGET FOR GSFLOW 
 DATE: 02 17 1981              CUMULATIVE TIME STEP:     140
 MODFLOW STRESS PERIOD      2     CURRENT TIME STEP:     140     ITERATIONS:      12

 -----------------------------------------------------------------------------------

   CUMULATIVE VOLUMES               L**3   RATES FOR THIS TIME STEP           L**3/T
   ------------------                      ------------------------

                                     IN                                         IN
                                     --                                         --
        PRECIPITATION =        1.0087D+07          PRECIPITATION =         108298.87
           STREAMFLOW =                               STREAMFLOW =                  
     GW BOUNDARY FLOW =                         GW BOUNDARY FLOW =                  
                WELLS =           2176.22                  WELLS =             16.45


                                    OUT                                        OUT
                                    ---                                        ---
   EVAPOTRANSPIRATION =        3676295.70     EVAPOTRANSPIRATION =          58704.88
           STREAMFLOW =        2255230.71             STREAMFLOW =         144717.13
     GW BOUNDARY FLOW =         101489.78       GW BOUNDARY FLOW =            733.86
                WELLS =         198407.38                  WELLS =           1246.39

   INFLOWS - OUTFLOWS =        3857359.79     INFLOWS - OUTFLOWS =         -97086.93
             --------                                   --------

 TOTAL STORAGE CHANGE =        3860058.39         STORAGE CHANGE =         -97078.09
       --------------                             --------------
         LAND SURFACE =        3726329.57           LAND SURFACE =        -273191.85
            SOIL ZONE =        2988260.50              SOIL ZONE =         175722.32
     UNSATURATED ZONE =       -1904616.33       UNSATURATED ZONE =           7260.92
       SATURATED ZONE =        -949915.35         SATURATED ZONE =          -6869.48

 OVERALL BUDGET ERROR =          -2698.60           BUDGET ERROR =             -8.83


  PERCENT DISCREPANCY =             -0.03    PERCENT DISCREPANCY =             -0.00



1
 SUMMARY VOLUMETRIC BUDGET FOR GSFLOW 
 DATE: 02 24 1981              CUMULATIVE TIME STEP:     147
 MODFLOW STRESS PERIOD      2     CURRENT TIME STEP:     147     ITERATIONS:      12

 -----------------------------------------------------------------------------------

   CUMULATIVE VOLUMES               L**3   RATES FOR THIS TIME STEP           L**3/T
   ------------------                      ------------------------

                                     IN                                         IN
                                     --                                         --
        PRECIPITATION =        1.0560D+07          PRECIPITATION =         473376.13
           STREAMFLOW =                               STREAMFLOW =                  
     GW BOUNDARY FLOW =                         GW BOUNDARY FLOW =                  
                WELLS =           2305.84                  WELLS =             19.34


                                    OUT                                        OUT
                                    ---                                        ---
   EVAPOTRANSPIRATION =        3996407.45     EVAPOTRANSPIRATION =          20787.25
           STREAMFLOW =        2996738.20             STREAMFLOW =         123044.28
     GW BOUNDARY FLOW =         106627.06       GW BOUNDARY FLOW =            733.98
                WELLS =         205589.37                  WELLS =            862.22

   INFLOWS - OUTFLOWS =        3256927.04     INFLOWS - OUTFLOWS =         327967.74
             --------                                   --------

 TOTAL STORAGE CHANGE =        3259682.01         STORAGE CHANGE =         327976.19
       --------------                             --------------
         LAND SURFACE =        3022131.32           LAND SURFACE =         234733.89
            SOIL ZONE =        3084439.54              SOIL ZONE =          89279.62
     UNSATURATED ZONE =       -1838409.61       UNSATURATED ZONE =          11394.89
       SATURATED ZONE =       -1008479.24         SATURATED ZONE =          -7432.21

 OVERALL BUDGET ERROR =          -2754.98           BUDGET ERROR =             -8.45


  PERCENT DISCREPANCY =             -0.03    PERCENT DISCREPANCY =             -0.00



1
 SUMMARY VOLUMETRIC BUDGET FOR GSFLOW 
 DATE: 03 03 1981              CUMULATIVE TIME STEP:     154
 MODFLOW STRESS PERIOD      2     CURRENT TIME STEP:     154     ITERATIONS:      29

 -----------------------------------------------------------------------------------

   CUMULATIVE VOLUMES               L**3   RATES FOR THIS TIME STEP           L**3/T
   ------------------                      ------------------------

                                     IN                                         IN
                                     --                                         --
        PRECIPITATION =        1.1273D+07          PRECIPITATION =                  
           STREAMFLOW =                               STREAMFLOW =                  
     GW BOUNDARY FLOW =                         GW BOUNDARY FLOW =                  
                WELLS =           2458.05                  WELLS =             26.46


                                    OUT                                        OUT
                                    ---                                        ---
   EVAPOTRANSPIRATION =        4113150.07     EVAPOTRANSPIRATION =          40276.78
           STREAMFLOW =        3371175.58             STREAMFLOW =          38900.40
     GW BOUNDARY FLOW =         111743.61       GW BOUNDARY FLOW =            729.12
                WELLS =         210585.14                  WELLS =            533.67

   INFLOWS - OUTFLOWS =        3469132.67     INFLOWS - OUTFLOWS =         -80413.50
             --------                                   --------

 TOTAL STORAGE CHANGE =        3471928.75         STORAGE CHANGE =         -80408.00
       --------------                             --------------
         LAND SURFACE =        3606733.56           LAND SURFACE =         -51898.36
            SOIL ZONE =        2738694.81              SOIL ZONE =         -21653.71
     UNSATURATED ZONE =       -1799960.50       UNSATURATED ZONE =           2276.15
       SATURATED ZONE =       -1073539.12         SATURATED ZONE =          -9132.08

 OVERALL BUDGET ERROR =          -2796.07           BUDGET ERROR =             -5.50


  PERCENT DISCREPANCY =             -0.02    PERCENT DISCREPANCY =             -0.01



1
 SUMMARY VOLUMETRIC BUDGET FOR GSFLOW 
 DATE: 03 10 1981              CUMULATIVE TIME STEP:     161
 MODFLOW STRESS PERIOD      2     CURRENT TIME STEP:     161     ITERATIONS:      12

 -----------------------------------------------------------------------------------

   CUMULATIVE VOLUMES               L**3   RATES FOR THIS TIME STEP           L**3/T
   ------------------                      ------------------------

                                     IN                                         IN
                                     --                                         --
        PRECIPITATION =        1.1273D+07          PRECIPITATION =                  
           STREAMFLOW =                               STREAMFLOW =                  
     GW BOUNDARY FLOW =                         GW BOUNDARY FLOW =                  
                WELLS =           2647.45                  WELLS =             26.60


                                    OUT                                        OUT
                                    ---                                        ---
   EVAPOTRANSPIRATION =        4393170.50     EVAPOTRANSPIRATION =          70879.22
           STREAMFLOW =        3733214.89             STREAMFLOW =          80104.19
     GW BOUNDARY FLOW =         116848.56       GW BOUNDARY FLOW =            730.94
                WELLS =         214290.41                  WELLS =            525.60

   INFLOWS - OUTFLOWS =        2818452.12     INFLOWS - OUTFLOWS =        -152213.34
             --------                                   --------

 TOTAL STORAGE CHANGE =        2821281.09         STORAGE CHANGE =        -152207.84
       --------------                             --------------
         LAND SURFACE =        2798241.48           LAND SURFACE =        -227930.74
            SOIL ZONE =        2931810.39              SOIL ZONE =          76104.28
     UNSATURATED ZONE =       -1775090.98       UNSATURATED ZONE =           7213.54
       SATURATED ZONE =       -1133679.80         SATURATED ZONE =          -7594.92

 OVERALL BUDGET ERROR =          -2828.97           BUDGET ERROR =             -5.49


  PERCENT DISCREPANCY =             -0.03    PERCENT DISCREPANCY =             -0.00



1
 SUMMARY VOLUMETRIC BUDGET FOR GSFLOW 
 DATE: 03 17 1981              CUMULATIVE TIME STEP:     168
 MODFLOW STRESS PERIOD      2     CURRENT TIME STEP:     168     ITERATIONS:      42

 -----------------------------------------------------------------------------------

   CUMULATIVE VOLUMES               L**3   RATES FOR THIS TIME STEP           L**3/T
   ------------------                      ------------------------

                                     IN                                         IN
                                     --                                         --
        PRECIPITATION =        1.1499D+07          PRECIPITATION =                  
           STREAMFLOW =                               STREAMFLOW =                  
     GW BOUNDARY FLOW =                         GW BOUNDARY FLOW =                  
                WELLS =           2824.47                  WELLS =             23.55


                                    OUT                                        OUT
                                    ---                                        ---
   EVAPOTRANSPIRATION =        4676212.41     EVAPOTRANSPIRATION =          29980.50
           STREAMFLOW =        4091539.45             STREAMFLOW =          32582.33
     GW BOUNDARY FLOW =         121959.84       GW BOUNDARY FLOW =            728.58
                WELLS =         218828.18                  WELLS =            954.69

   INFLOWS - OUTFLOWS =        2393684.31     INFLOWS - OUTFLOWS =         -64222.55
             --------                                   --------

 TOTAL STORAGE CHANGE =        2396540.34         STORAGE CHANGE =         -64219.63
       --------------                             --------------
         LAND SURFACE =        2656830.35           LAND SURFACE =         -29709.91
            SOIL ZONE =        2681429.35              SOIL ZONE =         -25299.35
     UNSATURATED ZONE =       -1743010.72       UNSATURATED ZONE =            867.97
       SATURATED ZONE =       -1198708.64         SATURATED ZONE =         -10078.35

 OVERALL BUDGET ERROR =          -2856.03           BUDGET ERROR =             -2.92


  PERCENT DISCREPANCY =             -0.02    PERCENT DISCREPANCY =             -0.00



1
 SUMMARY VOLUMETRIC BUDGET FOR GSFLOW 
 DATE: 03 24 1981              CUMULATIVE TIME STEP:     175
 MODFLOW STRESS PERIOD      2     CURRENT TIME STEP:     175     ITERATIONS:      12

 -----------------------------------------------------------------------------------

   CUMULATIVE VOLUMES               L**3   RATES FOR THIS TIME STEP           L**3/T
   ------------------                      ------------------------

                                     IN                                         IN
                                     --                                         --
        PRECIPITATION =        1.2888D+07          PRECIPITATION =                  
           STREAMFLOW =                               STREAMFLOW =                  
     GW BOUNDARY FLOW =                         GW BOUNDARY FLOW =                  
                WELLS =           2989.50                  WELLS =             23.46


                                    OUT                                        OUT
                                    ---                                        ---
   EVAPOTRANSPIRATION =        4923675.26     EVAPOTRANSPIRATION =          70526.45
           STREAMFLOW =        4297237.76             STREAMFLOW =          34728.10
     GW BOUNDARY FLOW =         127053.54       GW BOUNDARY FLOW =            727.59
                WELLS =         225411.82                  WELLS =            932.04

   INFLOWS - OUTFLOWS =        3317301.82     INFLOWS - OUTFLOWS =        -106890.72
             --------                                   --------

 TOTAL STORAGE CHANGE =        3320179.94         STORAGE CHANGE =        -106886.61
       --------------                             --------------
         LAND SURFACE =        3794149.06           LAND SURFACE =         -90717.38
            SOIL ZONE =        2551188.85              SOIL ZONE =          -4197.64
     UNSATURATED ZONE =       -1756186.53       UNSATURATED ZONE =          -2310.75
       SATURATED ZONE =       -1268971.43         SATURATED ZONE =          -9660.84

 OVERALL BUDGET ERROR =          -2878.13           BUDGET ERROR =             -4.11


  PERCENT DISCREPANCY =             -0.02    PERCENT DISCREPANCY =             -0.00



1
 SUMMARY VOLUMETRIC BUDGET FOR GSFLOW 
 DATE: 03 31 1981              CUMULATIVE TIME STEP:     182
 MODFLOW STRESS PERIOD      2     CURRENT TIME STEP:     182     ITERATIONS:      12

 -----------------------------------------------------------------------------------

   CUMULATIVE VOLUMES               L**3   RATES FOR THIS TIME STEP           L**3/T
   ------------------                      ------------------------

                                     IN                                         IN
                                     --                                         --
        PRECIPITATION =        1.4484D+07          PRECIPITATION =                  
           STREAMFLOW =                               STREAMFLOW =                  
     GW BOUNDARY FLOW =                         GW BOUNDARY FLOW =                  
                WELLS =           3152.46                  WELLS =             23.15


                                    OUT                                        OUT
                                    ---                                        ---
   EVAPOTRANSPIRATION =        5197361.99     EVAPOTRANSPIRATION =          24457.82
           STREAMFLOW =        4687576.39             STREAMFLOW =          39419.46
     GW BOUNDARY FLOW =         132160.49       GW BOUNDARY FLOW =            729.11
                WELLS =         231871.22                  WELLS =            916.34

   INFLOWS - OUTFLOWS =        4237759.88     INFLOWS - OUTFLOWS =         -65499.58
             --------                                   --------

 TOTAL STORAGE CHANGE =        4240657.26         STORAGE CHANGE =         -65496.94
       --------------                             --------------
         LAND SURFACE =        4615528.37           LAND SURFACE =         -25496.59
            SOIL ZONE =        2695165.51              SOIL ZONE =         -31577.82
     UNSATURATED ZONE =       -1735053.70       UNSATURATED ZONE =           1781.38
       SATURATED ZONE =       -1334982.92         SATURATED ZONE =         -10203.91

 OVERALL BUDGET ERROR =          -2897.38           BUDGET ERROR =             -2.65


  PERCENT DISCREPANCY =             -0.02    PERCENT DISCREPANCY =             -0.00



1
 SUMMARY VOLUMETRIC BUDGET FOR GSFLOW 
 DATE: 04 07 1981              CUMULATIVE TIME STEP:     189
 MODFLOW STRESS PERIOD      2     CURRENT TIME STEP:     189     ITERATIONS:      12

 -----------------------------------------------------------------------------------

   CUMULATIVE VOLUMES               L**3   RATES FOR THIS TIME STEP           L**3/T
   ------------------                      ------------------------

                                     IN                                         IN
                                     --                                         --
        PRECIPITATION =        1.4833D+07          PRECIPITATION =                  
           STREAMFLOW =                               STREAMFLOW =                  
     GW BOUNDARY FLOW =                         GW BOUNDARY FLOW =                  
                WELLS =           3310.00                  WELLS =             22.37


                                    OUT                                        OUT
                                    ---                                        ---
   EVAPOTRANSPIRATION =        5779285.66     EVAPOTRANSPIRATION =         124525.83
           STREAMFLOW =        5159995.99             STREAMFLOW =          92682.03
     GW BOUNDARY FLOW =         137272.02       GW BOUNDARY FLOW =            732.24
                WELLS =         240353.37                  WELLS =           1317.79

   INFLOWS - OUTFLOWS =        3519097.39     INFLOWS - OUTFLOWS =        -219235.51
             --------                                   --------

 TOTAL STORAGE CHANGE =        3522013.59         STORAGE CHANGE =        -219232.53
       --------------                             --------------
         LAND SURFACE =        3787621.31           LAND SURFACE =        -259972.49
            SOIL ZONE =        2838895.59              SOIL ZONE =          40954.75
     UNSATURATED ZONE =       -1704182.36       UNSATURATED ZONE =           8677.61
       SATURATED ZONE =       -1400320.96         SATURATED ZONE =          -8892.40

 OVERALL BUDGET ERROR =          -2916.20           BUDGET ERROR =             -2.98


  PERCENT DISCREPANCY =             -0.02    PERCENT DISCREPANCY =             -0.00



1
 SUMMARY VOLUMETRIC BUDGET FOR GSFLOW 
 DATE: 04 14 1981              CUMULATIVE TIME STEP:     196
 MODFLOW STRESS PERIOD      2     CURRENT TIME STEP:     196     ITERATIONS:      12

 -----------------------------------------------------------------------------------

   CUMULATIVE VOLUMES               L**3   RATES FOR THIS TIME STEP           L**3/T
   ------------------                      ------------------------

                                     IN                                         IN
                                     --                                         --
        PRECIPITATION =        1.4833D+07          PRECIPITATION =                  
           STREAMFLOW =                               STREAMFLOW =                  
     GW BOUNDARY FLOW =                         GW BOUNDARY FLOW =                  
                WELLS =           3467.55                  WELLS =             22.60


                                    OUT                                        OUT
                                    ---                                        ---
   EVAPOTRANSPIRATION =        6588734.49     EVAPOTRANSPIRATION =         170582.13
           STREAMFLOW =        5734078.49             STREAMFLOW =          87783.25
     GW BOUNDARY FLOW =         142395.63       GW BOUNDARY FLOW =            731.93
                WELLS =         249460.86                  WELLS =           1289.72

   INFLOWS - OUTFLOWS =        2121492.48     INFLOWS - OUTFLOWS =        -260364.44
             --------                                   --------

 TOTAL STORAGE CHANGE =        2124428.03         STORAGE CHANGE =        -260362.04
       --------------                             --------------
         LAND SURFACE =        2422300.68           LAND SURFACE =        -260648.05
            SOIL ZONE =        2816706.78              SOIL ZONE =            869.06
     UNSATURATED ZONE =       -1649523.06       UNSATURATED ZONE =           8192.27
       SATURATED ZONE =       -1465056.37         SATURATED ZONE =          -8775.32

 OVERALL BUDGET ERROR =          -2935.54           BUDGET ERROR =             -2.40


  PERCENT DISCREPANCY =             -0.02    PERCENT DISCREPANCY =             -0.00



1
 SUMMARY VOLUMETRIC BUDGET FOR GSFLOW 
 DATE: 04 21 1981              CUMULATIVE TIME STEP:     203
 MODFLOW STRESS PERIOD      2     CURRENT TIME STEP:     203     ITERATIONS:      12

 -----------------------------------------------------------------------------------

   CUMULATIVE VOLUMES               L**3   RATES FOR THIS TIME STEP           L**3/T
   ------------------                      ------------------------

                                     IN                                         IN
                                     --                                         --
        PRECIPITATION =        1.4976D+07          PRECIPITATION =                  
           STREAMFLOW =                               STREAMFLOW =                  
     GW BOUNDARY FLOW =                         GW BOUNDARY FLOW =                  
                WELLS =           3626.48                  WELLS =             22.78


                                    OUT                                        OUT
                                    ---                                        ---
   EVAPOTRANSPIRATION =        7565168.42     EVAPOTRANSPIRATION =         164397.93
           STREAMFLOW =        6226142.42             STREAMFLOW =          70487.80
     GW BOUNDARY FLOW =         147512.83       GW BOUNDARY FLOW =            730.43
                WELLS =         258400.58                  WELLS =           1268.45

   INFLOWS - OUTFLOWS =         782713.90     INFLOWS - OUTFLOWS =        -236861.82
             --------                                   --------

 TOTAL STORAGE CHANGE =         785660.93         STORAGE CHANGE =        -236859.51
       --------------                             --------------
         LAND SURFACE =        1308943.13           LAND SURFACE =        -136399.25
            SOIL ZONE =        2620223.22              SOIL ZONE =         -95363.85
     UNSATURATED ZONE =       -1611694.53       UNSATURATED ZONE =           3891.76
       SATURATED ZONE =       -1531810.90         SATURATED ZONE =          -8988.17

 OVERALL BUDGET ERROR =          -2947.03           BUDGET ERROR =             -2.31


  PERCENT DISCREPANCY =             -0.02    PERCENT DISCREPANCY =             -0.00



1
 SUMMARY VOLUMETRIC BUDGET FOR GSFLOW 
 DATE: 04 28 1981              CUMULATIVE TIME STEP:     210
 MODFLOW STRESS PERIOD      2     CURRENT TIME STEP:     210     ITERATIONS:      12

 -----------------------------------------------------------------------------------

   CUMULATIVE VOLUMES               L**3   RATES FOR THIS TIME STEP           L**3/T
   ------------------                      ------------------------

                                     IN                                         IN
                                     --                                         --
        PRECIPITATION =        1.5195D+07          PRECIPITATION =                  
           STREAMFLOW =                               STREAMFLOW =                  
     GW BOUNDARY FLOW =                         GW BOUNDARY FLOW =                  
                WELLS =           3786.62                  WELLS =             22.94


                                    OUT                                        OUT
                                    ---                                        ---
   EVAPOTRANSPIRATION =        8830756.37     EVAPOTRANSPIRATION =         208265.65
           STREAMFLOW =        6535583.07             STREAMFLOW =          39225.23
     GW BOUNDARY FLOW =         152614.08       GW BOUNDARY FLOW =            727.62
                WELLS =         267211.30                  WELLS =           1251.91

   INFLOWS - OUTFLOWS =        -587759.04     INFLOWS - OUTFLOWS =        -249447.47
             --------                                   --------

 TOTAL STORAGE CHANGE =        -584794.97         STORAGE CHANGE =        -249444.44
       --------------                             --------------
         LAND SURFACE =         607732.25           LAND SURFACE =         -76339.78
            SOIL ZONE =        2022929.79              SOIL ZONE =        -162027.86
     UNSATURATED ZONE =       -1610187.93       UNSATURATED ZONE =           -854.54
       SATURATED ZONE =       -1605269.08         SATURATED ZONE =         -10222.25

 OVERALL BUDGET ERROR =          -2964.07           BUDGET ERROR =             -3.03


  PERCENT DISCREPANCY =             -0.02    PERCENT DISCREPANCY =             -0.00



1
 SUMMARY VOLUMETRIC BUDGET FOR GSFLOW 
 DATE: 05 05 1981              CUMULATIVE TIME STEP:     217
 MODFLOW STRESS PERIOD      2     CURRENT TIME STEP:     217     ITERATIONS:      38

 -----------------------------------------------------------------------------------

   CUMULATIVE VOLUMES               L**3   RATES FOR THIS TIME STEP           L**3/T
   ------------------                      ------------------------

                                     IN                                         IN
                                     --                                         --
        PRECIPITATION =        1.5195D+07          PRECIPITATION =                  
           STREAMFLOW =                               STREAMFLOW =                  
     GW BOUNDARY FLOW =                         GW BOUNDARY FLOW =                  
                WELLS =           3897.49                  WELLS =             12.99


                                    OUT                                        OUT
                                    ---                                        ---
   EVAPOTRANSPIRATION =        9778544.25     EVAPOTRANSPIRATION =          52511.79
           STREAMFLOW =        6675340.99             STREAMFLOW =          11223.24
     GW BOUNDARY FLOW =         157694.99       GW BOUNDARY FLOW =            724.42
                WELLS =         274004.58                  WELLS =            763.20

   INFLOWS - OUTFLOWS =       -1687068.16     INFLOWS - OUTFLOWS =         -65209.64
             --------                                   --------

 TOTAL STORAGE CHANGE =       -1684075.53         STORAGE CHANGE =         -65205.34
       --------------                             --------------
         LAND SURFACE =         298688.96           LAND SURFACE =          -6179.61
            SOIL ZONE =        1344654.83              SOIL ZONE =         -41331.24
     UNSATURATED ZONE =       -1643419.87       UNSATURATED ZONE =          -6344.43
       SATURATED ZONE =       -1683999.45         SATURATED ZONE =         -11350.05

 OVERALL BUDGET ERROR =          -2992.63           BUDGET ERROR =             -4.31


  PERCENT DISCREPANCY =             -0.02    PERCENT DISCREPANCY =             -0.01



1
 SUMMARY VOLUMETRIC BUDGET FOR GSFLOW 
 DATE: 05 12 1981              CUMULATIVE TIME STEP:     224
 MODFLOW STRESS PERIOD      2     CURRENT TIME STEP:     224     ITERATIONS:      12

 -----------------------------------------------------------------------------------

   CUMULATIVE VOLUMES               L**3   RATES FOR THIS TIME STEP           L**3/T
   ------------------                      ------------------------

                                     IN                                         IN
                                     --                                         --
        PRECIPITATION =        1.5195D+07          PRECIPITATION =                  
           STREAMFLOW =                               STREAMFLOW =                  
     GW BOUNDARY FLOW =                         GW BOUNDARY FLOW =                  
                WELLS =           4014.74                  WELLS =             16.08


                                    OUT                                        OUT
                                    ---                                        ---
   EVAPOTRANSPIRATION =        1.0283D+07     EVAPOTRANSPIRATION =          87069.95
           STREAMFLOW =        6746638.10             STREAMFLOW =          10502.06
     GW BOUNDARY FLOW =         162760.30       GW BOUNDARY FLOW =            723.35
                WELLS =         276815.74                  WELLS =            399.96

   INFLOWS - OUTFLOWS =       -2270955.64     INFLOWS - OUTFLOWS =         -98679.24
             --------                                   --------

 TOTAL STORAGE CHANGE =       -2267932.07         STORAGE CHANGE =         -98674.83
       --------------                             --------------
         LAND SURFACE =         171434.21           LAND SURFACE =         -24660.70
            SOIL ZONE =        1011109.63              SOIL ZONE =         -56471.51
     UNSATURATED ZONE =       -1689437.36       UNSATURATED ZONE =          -6310.31
       SATURATED ZONE =       -1761038.54         SATURATED ZONE =         -11232.32

 OVERALL BUDGET ERROR =          -3023.57           BUDGET ERROR =             -4.40


  PERCENT DISCREPANCY =             -0.02    PERCENT DISCREPANCY =             -0.00



1
 SUMMARY VOLUMETRIC BUDGET FOR GSFLOW 
 DATE: 05 19 1981              CUMULATIVE TIME STEP:     231
 MODFLOW STRESS PERIOD      2     CURRENT TIME STEP:     231     ITERATIONS:      12

 -----------------------------------------------------------------------------------

   CUMULATIVE VOLUMES               L**3   RATES FOR THIS TIME STEP           L**3/T
   ------------------                      ------------------------

                                     IN                                         IN
                                     --                                         --
        PRECIPITATION =        1.6217D+07          PRECIPITATION =         339612.76
           STREAMFLOW =                               STREAMFLOW =                  
     GW BOUNDARY FLOW =                         GW BOUNDARY FLOW =                  
                WELLS =           4218.79                  WELLS =             30.17


                                    OUT                                        OUT
                                    ---                                        ---
   EVAPOTRANSPIRATION =        1.0618D+07     EVAPOTRANSPIRATION =          28291.29
           STREAMFLOW =        6836105.07             STREAMFLOW =          16214.80
     GW BOUNDARY FLOW =         167823.82       GW BOUNDARY FLOW =            723.81
                WELLS =         278053.63                  WELLS =            536.22

   INFLOWS - OUTFLOWS =       -1679330.45     INFLOWS - OUTFLOWS =         293876.81
             --------                                   --------

 TOTAL STORAGE CHANGE =       -1676275.67         STORAGE CHANGE =         293880.84
       --------------                             --------------
         LAND SURFACE =         343346.50           LAND SURFACE =         162072.05
            SOIL ZONE =        1549421.52              SOIL ZONE =         148386.98
     UNSATURATED ZONE =       -1730131.58       UNSATURATED ZONE =          -5028.99
       SATURATED ZONE =       -1838912.10         SATURATED ZONE =         -11549.21

 OVERALL BUDGET ERROR =          -3054.78           BUDGET ERROR =             -4.02


  PERCENT DISCREPANCY =             -0.02    PERCENT DISCREPANCY =             -0.00



1
 SUMMARY VOLUMETRIC BUDGET FOR GSFLOW 
 DATE: 05 26 1981              CUMULATIVE TIME STEP:     238
 MODFLOW STRESS PERIOD      2     CURRENT TIME STEP:     238     ITERATIONS:      12

 -----------------------------------------------------------------------------------

   CUMULATIVE VOLUMES               L**3   RATES FOR THIS TIME STEP           L**3/T
   ------------------                      ------------------------

                                     IN                                         IN
                                     --                                         --
        PRECIPITATION =        1.6608D+07          PRECIPITATION =         171546.23
           STREAMFLOW =                               STREAMFLOW =                  
     GW BOUNDARY FLOW =                         GW BOUNDARY FLOW =                  
                WELLS =           4429.99                  WELLS =             29.57


                                    OUT                                        OUT
                                    ---                                        ---
   EVAPOTRANSPIRATION =        1.1312D+07     EVAPOTRANSPIRATION =         110479.51
           STREAMFLOW =        6943364.09             STREAMFLOW =          17847.04
     GW BOUNDARY FLOW =         172889.54       GW BOUNDARY FLOW =            723.77
                WELLS =         281755.41                  WELLS =            525.18

   INFLOWS - OUTFLOWS =       -2098009.80     INFLOWS - OUTFLOWS =          42000.31
             --------                                   --------

 TOTAL STORAGE CHANGE =       -2094926.06         STORAGE CHANGE =          42004.71
       --------------                             --------------
         LAND SURFACE =         104539.09           LAND SURFACE =          -4685.06
            SOIL ZONE =        1482756.96              SOIL ZONE =          62745.44
     UNSATURATED ZONE =       -1761356.56       UNSATURATED ZONE =          -4276.26
       SATURATED ZONE =       -1920865.56         SATURATED ZONE =         -11779.42

 OVERALL BUDGET ERROR =          -3083.73           BUDGET ERROR =             -4.39


  PERCENT DISCREPANCY =             -0.02    PERCENT DISCREPANCY =             -0.00



1
 SUMMARY VOLUMETRIC BUDGET FOR GSFLOW 
 DATE: 06 02 1981              CUMULATIVE TIME STEP:     245
 MODFLOW STRESS PERIOD      2     CURRENT TIME STEP:     245     ITERATIONS:      26

 -----------------------------------------------------------------------------------

   CUMULATIVE VOLUMES               L**3   RATES FOR THIS TIME STEP           L**3/T
   ------------------                      ------------------------

                                     IN                                         IN
                                     --                                         --
        PRECIPITATION =        1.6690D+07          PRECIPITATION =                  
           STREAMFLOW =                               STREAMFLOW =                  
     GW BOUNDARY FLOW =                         GW BOUNDARY FLOW =                  
                WELLS =           4631.09                  WELLS =             28.11


                                    OUT                                        OUT
                                    ---                                        ---
   EVAPOTRANSPIRATION =        1.2069D+07     EVAPOTRANSPIRATION =          67901.20
           STREAMFLOW =        7019408.38             STREAMFLOW =           7060.15
     GW BOUNDARY FLOW =         177951.06       GW BOUNDARY FLOW =            722.35
                WELLS =         285402.64                  WELLS =            518.12

   INFLOWS - OUTFLOWS =       -2857190.07     INFLOWS - OUTFLOWS =         -76173.72
             --------                                   --------

 TOTAL STORAGE CHANGE =       -2854072.71         STORAGE CHANGE =         -76169.59
       --------------                             --------------
         LAND SURFACE =          25149.13           LAND SURFACE =          -3379.81
            SOIL ZONE =         926131.25              SOIL ZONE =         -53900.39
     UNSATURATED ZONE =       -1797246.83       UNSATURATED ZONE =          -6092.99
       SATURATED ZONE =       -2008106.26         SATURATED ZONE =         -12796.40

 OVERALL BUDGET ERROR =          -3117.37           BUDGET ERROR =             -4.13


  PERCENT DISCREPANCY =             -0.02    PERCENT DISCREPANCY =             -0.01



1
 SUMMARY VOLUMETRIC BUDGET FOR GSFLOW 
 DATE: 06 09 1981              CUMULATIVE TIME STEP:     252
 MODFLOW STRESS PERIOD      2     CURRENT TIME STEP:     252     ITERATIONS:      13

 -----------------------------------------------------------------------------------

   CUMULATIVE VOLUMES               L**3   RATES FOR THIS TIME STEP           L**3/T
   ------------------                      ------------------------

                                     IN                                         IN
                                     --                                         --
        PRECIPITATION =        1.6690D+07          PRECIPITATION =                  
           STREAMFLOW =                               STREAMFLOW =                  
     GW BOUNDARY FLOW =                         GW BOUNDARY FLOW =                  
[...]
   ------------------                      ------------------------

                                     IN                                         IN
                                     --                                         --
        PRECIPITATION =        1.2601D+08          PRECIPITATION =                  
           STREAMFLOW =                               STREAMFLOW =                  
     GW BOUNDARY FLOW =                         GW BOUNDARY FLOW =                  
                WELLS =          24364.81                  WELLS =             11.97


                                    OUT                                        OUT
                                    ---                                        ---
   EVAPOTRANSPIRATION =        5.9313D+07     EVAPOTRANSPIRATION =           5896.95
           STREAMFLOW =        6.2916D+07             STREAMFLOW =          16695.48
     GW BOUNDARY FLOW =         836304.05       GW BOUNDARY FLOW =            719.89
                WELLS =        1034977.89                  WELLS =            919.58

   INFLOWS - OUTFLOWS =        1929056.63     INFLOWS - OUTFLOWS =         -24219.92
             --------                                   --------

 TOTAL STORAGE CHANGE =        1933710.88         STORAGE CHANGE =         -24219.27
       --------------                             --------------
         LAND SURFACE =        1.0379D+07           LAND SURFACE =          -5896.95
            SOIL ZONE =        2481469.83              SOIL ZONE =          -8649.13
     UNSATURATED ZONE =         301562.04       UNSATURATED ZONE =           -673.44
       SATURATED ZONE =       -1.1229D+07         SATURATED ZONE =          -8999.75

 OVERALL BUDGET ERROR =          -4654.25           BUDGET ERROR =             -0.65


  PERCENT DISCREPANCY =             -0.00    PERCENT DISCREPANCY =             -0.00



1
 SUMMARY VOLUMETRIC BUDGET FOR GSFLOW 
 DATE: 12 06 1983              CUMULATIVE TIME STEP:    1162
 MODFLOW STRESS PERIOD      2     CURRENT TIME STEP:    1162     ITERATIONS:       8

 -----------------------------------------------------------------------------------

   CUMULATIVE VOLUMES               L**3   RATES FOR THIS TIME STEP           L**3/T
   ------------------                      ------------------------

                                     IN                                         IN
                                     --                                         --
        PRECIPITATION =        1.2771D+08          PRECIPITATION =                  
           STREAMFLOW =                               STREAMFLOW =                  
     GW BOUNDARY FLOW =                         GW BOUNDARY FLOW =                  
                WELLS =          24490.11                  WELLS =             18.54


                                    OUT                                        OUT
                                    ---                                        ---
   EVAPOTRANSPIRATION =        5.9379D+07     EVAPOTRANSPIRATION =           3262.97
           STREAMFLOW =        6.3022D+07             STREAMFLOW =          14400.32
     GW BOUNDARY FLOW =         841341.18       GW BOUNDARY FLOW =            719.45
                WELLS =        1041150.32                  WELLS =            872.20

   INFLOWS - OUTFLOWS =        3451032.25     INFLOWS - OUTFLOWS =         -19236.40
             --------                                   --------

 TOTAL STORAGE CHANGE =        3455694.40         STORAGE CHANGE =         -19235.66
       --------------                             --------------
         LAND SURFACE =        1.2019D+07           LAND SURFACE =          -3262.97
            SOIL ZONE =        2439661.57              SOIL ZONE =          -4425.86
     UNSATURATED ZONE =         289659.57       UNSATURATED ZONE =          -2363.12
       SATURATED ZONE =       -1.1292D+07         SATURATED ZONE =          -9183.71

 OVERALL BUDGET ERROR =          -4662.15           BUDGET ERROR =             -0.74


  PERCENT DISCREPANCY =             -0.00    PERCENT DISCREPANCY =             -0.00



1
 SUMMARY VOLUMETRIC BUDGET FOR GSFLOW 
 DATE: 12 13 1983              CUMULATIVE TIME STEP:    1169
 MODFLOW STRESS PERIOD      2     CURRENT TIME STEP:    1169     ITERATIONS:       9

 -----------------------------------------------------------------------------------

   CUMULATIVE VOLUMES               L**3   RATES FOR THIS TIME STEP           L**3/T
   ------------------                      ------------------------

                                     IN                                         IN
                                     --                                         --
        PRECIPITATION =        1.3066D+08          PRECIPITATION =          48887.43
           STREAMFLOW =                               STREAMFLOW =                  
     GW BOUNDARY FLOW =                         GW BOUNDARY FLOW =                  
                WELLS =          24641.45                  WELLS =             22.98


                                    OUT                                        OUT
                                    ---                                        ---
   EVAPOTRANSPIRATION =        5.9441D+07     EVAPOTRANSPIRATION =           7752.50
           STREAMFLOW =        6.3119D+07             STREAMFLOW =          13472.49
     GW BOUNDARY FLOW =         846375.76       GW BOUNDARY FLOW =            719.06
                WELLS =        1048688.14                  WELLS =            947.88

   INFLOWS - OUTFLOWS =        6234159.54     INFLOWS - OUTFLOWS =          26018.49
             --------                                   --------

 TOTAL STORAGE CHANGE =        6238829.39         STORAGE CHANGE =          26019.64
       --------------                             --------------
         LAND SURFACE =        1.4911D+07           LAND SURFACE =          41134.93
            SOIL ZONE =        2418774.66              SOIL ZONE =          -2086.67
     UNSATURATED ZONE =         268115.93       UNSATURATED ZONE =          -3548.59
       SATURATED ZONE =       -1.1359D+07         SATURATED ZONE =          -9480.02

 OVERALL BUDGET ERROR =          -4669.84           BUDGET ERROR =             -1.16


  PERCENT DISCREPANCY =             -0.00    PERCENT DISCREPANCY =             -0.00



1
 SUMMARY VOLUMETRIC BUDGET FOR GSFLOW 
 DATE: 12 20 1983              CUMULATIVE TIME STEP:    1176
 MODFLOW STRESS PERIOD      2     CURRENT TIME STEP:    1176     ITERATIONS:      10

 -----------------------------------------------------------------------------------

   CUMULATIVE VOLUMES               L**3   RATES FOR THIS TIME STEP           L**3/T
   ------------------                      ------------------------

                                     IN                                         IN
                                     --                                         --
        PRECIPITATION =        1.3124D+08          PRECIPITATION =                  
           STREAMFLOW =                               STREAMFLOW =                  
     GW BOUNDARY FLOW =                         GW BOUNDARY FLOW =                  
                WELLS =          24798.13                  WELLS =             22.11


                                    OUT                                        OUT
                                    ---                                        ---
   EVAPOTRANSPIRATION =        5.9596D+07     EVAPOTRANSPIRATION =          22979.64
           STREAMFLOW =        6.3219D+07             STREAMFLOW =          13970.62
     GW BOUNDARY FLOW =         851408.57       GW BOUNDARY FLOW =            718.91
                WELLS =        1055183.68                  WELLS =            915.03

   INFLOWS - OUTFLOWS =        6542355.04     INFLOWS - OUTFLOWS =         -38562.09
             --------                                   --------

 TOTAL STORAGE CHANGE =        6547036.34         STORAGE CHANGE =         -38559.70
       --------------                             --------------
         LAND SURFACE =        1.5309D+07           LAND SURFACE =         -23386.50
            SOIL ZONE =        2421315.11              SOIL ZONE =          -1848.33
     UNSATURATED ZONE =         242537.44       UNSATURATED ZONE =          -3842.34
       SATURATED ZONE =       -1.1425D+07         SATURATED ZONE =          -9482.53

 OVERALL BUDGET ERROR =          -4681.30           BUDGET ERROR =             -2.39


  PERCENT DISCREPANCY =             -0.00    PERCENT DISCREPANCY =             -0.01



1
 SUMMARY VOLUMETRIC BUDGET FOR GSFLOW 
 DATE: 12 27 1983              CUMULATIVE TIME STEP:    1183
 MODFLOW STRESS PERIOD      2     CURRENT TIME STEP:    1183     ITERATIONS:       8

 -----------------------------------------------------------------------------------

   CUMULATIVE VOLUMES               L**3   RATES FOR THIS TIME STEP           L**3/T
   ------------------                      ------------------------

                                     IN                                         IN
                                     --                                         --
        PRECIPITATION =        1.3494D+08          PRECIPITATION =         350323.53
           STREAMFLOW =                               STREAMFLOW =                  
     GW BOUNDARY FLOW =                         GW BOUNDARY FLOW =                  
                WELLS =          24950.63                  WELLS =             21.54


                                    OUT                                        OUT
                                    ---                                        ---
   EVAPOTRANSPIRATION =        5.9648D+07     EVAPOTRANSPIRATION =           9465.25
           STREAMFLOW =        6.3312D+07             STREAMFLOW =          13090.20
     GW BOUNDARY FLOW =         856439.86       GW BOUNDARY FLOW =            718.62
                WELLS =        1061490.28                  WELLS =            891.36

   INFLOWS - OUTFLOWS =        1.0084D+07     INFLOWS - OUTFLOWS =         326179.64
             --------                                   --------

 TOTAL STORAGE CHANGE =        1.0089D+07         STORAGE CHANGE =         326181.88
       --------------                             --------------
         LAND SURFACE =        1.8955D+07           LAND SURFACE =         340858.28
            SOIL ZONE =        2411304.87              SOIL ZONE =           -999.32
     UNSATURATED ZONE =         214733.41       UNSATURATED ZONE =          -4041.14
       SATURATED ZONE =       -1.1492D+07         SATURATED ZONE =          -9635.95

 OVERALL BUDGET ERROR =          -4696.64           BUDGET ERROR =             -2.24


  PERCENT DISCREPANCY =             -0.00    PERCENT DISCREPANCY =             -0.00



1
 SUMMARY VOLUMETRIC BUDGET FOR GSFLOW 
 DATE: 01 03 1984              CUMULATIVE TIME STEP:    1190
 MODFLOW STRESS PERIOD      2     CURRENT TIME STEP:    1190     ITERATIONS:       9

 -----------------------------------------------------------------------------------

   CUMULATIVE VOLUMES               L**3   RATES FOR THIS TIME STEP           L**3/T
   ------------------                      ------------------------

                                     IN                                         IN
                                     --                                         --
        PRECIPITATION =        1.3595D+08          PRECIPITATION =                  
           STREAMFLOW =                               STREAMFLOW =                  
     GW BOUNDARY FLOW =                         GW BOUNDARY FLOW =                  
                WELLS =          25098.96                  WELLS =             20.88


                                    OUT                                        OUT
                                    ---                                        ---
   EVAPOTRANSPIRATION =        5.9782D+07     EVAPOTRANSPIRATION =          25291.25
           STREAMFLOW =        6.3416D+07             STREAMFLOW =          15008.79
     GW BOUNDARY FLOW =         861470.69       GW BOUNDARY FLOW =            718.70
                WELLS =        1067655.61                  WELLS =            873.47

   INFLOWS - OUTFLOWS =        1.0850D+07     INFLOWS - OUTFLOWS =         -41871.33
             --------                                   --------

 TOTAL STORAGE CHANGE =        1.0855D+07         STORAGE CHANGE =         -41869.88
       --------------                             --------------
         LAND SURFACE =        1.9789D+07           LAND SURFACE =         -28412.36
            SOIL ZONE =        2433863.84              SOIL ZONE =          -1044.03
     UNSATURATED ZONE =         191546.12       UNSATURATED ZONE =          -2899.79
       SATURATED ZONE =       -1.1559D+07         SATURATED ZONE =          -9513.69

 OVERALL BUDGET ERROR =          -4709.88           BUDGET ERROR =             -1.45


  PERCENT DISCREPANCY =             -0.00    PERCENT DISCREPANCY =             -0.00



1
 SUMMARY VOLUMETRIC BUDGET FOR GSFLOW 
 DATE: 01 10 1984              CUMULATIVE TIME STEP:    1197
 MODFLOW STRESS PERIOD      2     CURRENT TIME STEP:    1197     ITERATIONS:       9

 -----------------------------------------------------------------------------------

   CUMULATIVE VOLUMES               L**3   RATES FOR THIS TIME STEP           L**3/T
   ------------------                      ------------------------

                                     IN                                         IN
                                     --                                         --
        PRECIPITATION =        1.3595D+08          PRECIPITATION =                  
           STREAMFLOW =                               STREAMFLOW =                  
     GW BOUNDARY FLOW =                         GW BOUNDARY FLOW =                  
                WELLS =          25265.38                  WELLS =             24.98


                                    OUT                                        OUT
                                    ---                                        ---
   EVAPOTRANSPIRATION =        6.0054D+07     EVAPOTRANSPIRATION =          23779.37
           STREAMFLOW =        6.3660D+07             STREAMFLOW =          37423.14
     GW BOUNDARY FLOW =         866514.13       GW BOUNDARY FLOW =            721.57
                WELLS =        1073243.75                  WELLS =            935.16

   INFLOWS - OUTFLOWS =        1.0326D+07     INFLOWS - OUTFLOWS =         -62834.26
             --------                                   --------

 TOTAL STORAGE CHANGE =        1.0330D+07         STORAGE CHANGE =         -62833.30
       --------------                             --------------
         LAND SURFACE =        1.9023D+07           LAND SURFACE =         -34002.60
            SOIL ZONE =        2704567.13              SOIL ZONE =         -27317.74
     UNSATURATED ZONE =         220854.26       UNSATURATED ZONE =           7379.80
       SATURATED ZONE =       -1.1618D+07         SATURATED ZONE =          -8892.75

 OVERALL BUDGET ERROR =          -4719.42           BUDGET ERROR =             -0.96


  PERCENT DISCREPANCY =             -0.00    PERCENT DISCREPANCY =             -0.00



1
 SUMMARY VOLUMETRIC BUDGET FOR GSFLOW 
 DATE: 01 17 1984              CUMULATIVE TIME STEP:    1204
 MODFLOW STRESS PERIOD      2     CURRENT TIME STEP:    1204     ITERATIONS:       9

 -----------------------------------------------------------------------------------

   CUMULATIVE VOLUMES               L**3   RATES FOR THIS TIME STEP           L**3/T
   ------------------                      ------------------------

                                     IN                                         IN
                                     --                                         --
        PRECIPITATION =        1.3620D+08          PRECIPITATION =                  
           STREAMFLOW =                               STREAMFLOW =                  
     GW BOUNDARY FLOW =                         GW BOUNDARY FLOW =                  
                WELLS =          25438.40                  WELLS =             24.48


                                    OUT                                        OUT
                                    ---                                        ---
   EVAPOTRANSPIRATION =        6.0094D+07     EVAPOTRANSPIRATION =           1907.77
           STREAMFLOW =        6.3836D+07             STREAMFLOW =          19999.08
     GW BOUNDARY FLOW =         871557.09       GW BOUNDARY FLOW =            719.63
                WELLS =        1079696.93                  WELLS =            913.01

   INFLOWS - OUTFLOWS =        1.0344D+07     INFLOWS - OUTFLOWS =         -23515.02
             --------                                   --------

 TOTAL STORAGE CHANGE =        1.0348D+07         STORAGE CHANGE =         -23514.71
       --------------                             --------------
         LAND SURFACE =        1.9228D+07           LAND SURFACE =          -1907.77
            SOIL ZONE =        2549865.70              SOIL ZONE =         -15022.68
     UNSATURATED ZONE =         252270.89       UNSATURATED ZONE =           2654.55
       SATURATED ZONE =       -1.1682D+07         SATURATED ZONE =          -9238.81

 OVERALL BUDGET ERROR =          -4721.78           BUDGET ERROR =             -0.31


  PERCENT DISCREPANCY =             -0.00    PERCENT DISCREPANCY =             -0.00



1
 SUMMARY VOLUMETRIC BUDGET FOR GSFLOW 
 DATE: 01 24 1984              CUMULATIVE TIME STEP:    1211
 MODFLOW STRESS PERIOD      2     CURRENT TIME STEP:    1211     ITERATIONS:       9

 -----------------------------------------------------------------------------------

   CUMULATIVE VOLUMES               L**3   RATES FOR THIS TIME STEP           L**3/T
   ------------------                      ------------------------

                                     IN                                         IN
                                     --                                         --
        PRECIPITATION =        1.3620D+08          PRECIPITATION =                  
           STREAMFLOW =                               STREAMFLOW =                  
     GW BOUNDARY FLOW =                         GW BOUNDARY FLOW =                  
                WELLS =          25607.56                  WELLS =             23.93


                                    OUT                                        OUT
                                    ---                                        ---
   EVAPOTRANSPIRATION =        6.0222D+07     EVAPOTRANSPIRATION =          38649.61
           STREAMFLOW =        6.3955D+07             STREAMFLOW =          15475.71
     GW BOUNDARY FLOW =         876590.35       GW BOUNDARY FLOW =            718.73
                WELLS =        1086019.08                  WELLS =            896.40

   INFLOWS - OUTFLOWS =        1.0086D+07     INFLOWS - OUTFLOWS =         -55716.51
             --------                                   --------

 TOTAL STORAGE CHANGE =        1.0091D+07         STORAGE CHANGE =         -55716.58
       --------------                             --------------
         LAND SURFACE =        1.9101D+07           LAND SURFACE =         -38649.61
            SOIL ZONE =        2478269.28              SOIL ZONE =          -7565.71
     UNSATURATED ZONE =         258419.12       UNSATURATED ZONE =           -187.74
       SATURATED ZONE =       -1.1747D+07         SATURATED ZONE =          -9313.52

 OVERALL BUDGET ERROR =          -4724.61           BUDGET ERROR =              0.07


  PERCENT DISCREPANCY =             -0.00    PERCENT DISCREPANCY =              0.00



