GSFLOW Computation Order     gsflow_prms.f90, version: 7633 2015-09-11 22:17:53Z
Basin Definition             basin.f90, version: 7588 2015-08-18 22:58:42Z
Cascading Flow               cascade.f90, version: 7588 2015-08-18 22:58:42Z
Common States and Fluxes     climateflow.f90, version: 7588 2015-08-18 22:58:42Z
Potential Solar Radiation    soltab.f90, version: 7563 2015-08-04 20:04:22Z
PRMS Set Time Variables      prms_time.f90, version: 7430 2015-06-10 21:09:20Z
Time Series Data             obs.f90, version: 7488 2015-07-16 23:25:44Z
Temperature Distribution     climate_hru.f90, version: 7588 2015-08-18 22:58:42Z
Precipitation Distribution   climate_hru.f90, version: 7588 2015-08-18 22:58:42Z
Solar Radiation Distribution ddsolrad.f90, version: 7530 2015-07-29 22:33:42Z
Transpiration Distribution   transp_tindex.f90, version: 7117 2015-01-06 00:28:20Z
Potential Evapotranspiration potet_jh.f90, version: 7525 2015-07-28 19:39:43Z
Canopy Interception          intcp.f90, version: 7588 2015-08-18 22:58:42Z
Snow Dynamics                snowcomp.f90, version: 7563 2015-08-04 20:04:22Z
Surface Runoff               srunoff_smidx.f90, version: 7588 2015-08-18 22:58:42Z
Soil Zone Computations       soilzone.f90, version: 7588 2015-08-18 22:58:42Z
GSFLOW PRMS to MODFLOW       gsflow_prms2mf.f90, version: 7562 2015-08-04 20:02:18Z
GSFLOW MODFLOW to PRMS       gsflow_mf2prms.f90, version: 7535 2015-07-29 22:37:29Z
GSFLOW Output Budget Summary gsflow_budget.f90, version: 7508 2015-07-23 22:15:56Z
GSFLOW Output CSV Summary    gsflow_sum.f90, version: 7589 2015-08-19 17:03:25Z
Output Summary               subbasin.f90, version: 7432 2015-06-10 21:50:54Z
GSFLOW MODFLOW main          gsflow_modflow.f, version: 7595 2015-09-01 15:01:38Z
MODFLOW UZF-NWT Package      gwf2uzf1_NWT.f, version: 7578 2015-08-11 15:14:00Z
MODFLOW SFR-NWT Package      gwf2sfr7_NWT.f, version: 7541 2015-07-30 21:46:59Z

Using Control File: ./gsflow.control


 Surface Water and Energy Budgets Simulated by Version 4.0.1 03/15/2015
 Start time: 1983/11/25 00:00:00
 End time:   1983/12/01 00:00:00
 Sum of HRU areas:     6782.50; Active basin area:     6782.50
 Fraction impervious:   0.0000; Fraction pervious:      1.0000


