1
 SUMMARY VOLUMETRIC BUDGET FOR GSFLOW 
 DATE: 12 01 1983              CUMULATIVE TIME STEP:    1157
 MODFLOW STRESS PERIOD      1     CURRENT TIME STEP:    1157     ITERATIONS:      13

 -----------------------------------------------------------------------------------

   CUMULATIVE VOLUMES               L**3   RATES FOR THIS TIME STEP           L**3/T
   ------------------                      ------------------------

                                     IN                                         IN
                                     --                                         --
        PRECIPITATION =        2.5846D+07          PRECIPITATION =                  
           STREAMFLOW =                               STREAMFLOW =                  
     GW BOUNDARY FLOW =                         GW BOUNDARY FLOW =                  


                                    OUT                                        OUT
                                    ---                                        ---
   EVAPOTRANSPIRATION =        3706442.41     EVAPOTRANSPIRATION =        1037451.28
           STREAMFLOW =        3.2981D+07             STREAMFLOW =        5040038.00
     GW BOUNDARY FLOW =                         GW BOUNDARY FLOW =                  

   INFLOWS - OUTFLOWS =       -1.0841D+07     INFLOWS - OUTFLOWS =       -6077489.28
             --------                                   --------

 TOTAL STORAGE CHANGE =       -1.1155D+07         STORAGE CHANGE =       -6086073.06
       --------------                             --------------
         LAND SURFACE =        1.7426D+07           LAND SURFACE =        -529576.72
            SOIL ZONE =        -784890.89              SOIL ZONE =         -93146.45
     UNSATURATED ZONE =          44201.41       UNSATURATED ZONE =         -23025.47
       SATURATED ZONE =       -1045619.95         SATURATED ZONE =        -139378.91
                LAKES =       -2.6795D+07                  LAKES =       -5300945.50

 OVERALL BUDGET ERROR =         313629.26           BUDGET ERROR =           8583.78


  PERCENT DISCREPANCY =              0.85    PERCENT DISCREPANCY =              0.14



