1
 SUMMARY VOLUMETRIC BUDGET FOR GSFLOW 
 DATE: 11 10 1983              CUMULATIVE TIME STEP:    1136
 MODFLOW STRESS PERIOD      1     CURRENT TIME STEP:    1136     ITERATIONS:      16

 -----------------------------------------------------------------------------------

   CUMULATIVE VOLUMES               L**3   RATES FOR THIS TIME STEP           L**3/T
   ------------------                      ------------------------

                                     IN                                         IN
                                     --                                         --
        PRECIPITATION =        1.0338D+08          PRECIPITATION =        8.7230D+07
           STREAMFLOW =                               STREAMFLOW =                  
     GW BOUNDARY FLOW =                         GW BOUNDARY FLOW =                  


                                    OUT                                        OUT
                                    ---                                        ---
   EVAPOTRANSPIRATION =        1.3269D+07     EVAPOTRANSPIRATION =         643440.55
           STREAMFLOW =        1.7081D+07             STREAMFLOW =        2998025.00
     GW BOUNDARY FLOW =                         GW BOUNDARY FLOW =                  

   INFLOWS - OUTFLOWS =        7.3033D+07     INFLOWS - OUTFLOWS =        8.3588D+07
             --------                                   --------

 TOTAL STORAGE CHANGE =        7.2642D+07         STORAGE CHANGE =        8.3251D+07
       --------------                             --------------
         LAND SURFACE =        4.8919D+07           LAND SURFACE =        4.6421D+07
            SOIL ZONE =        5697703.12              SOIL ZONE =        7489311.74
     UNSATURATED ZONE =         403247.55       UNSATURATED ZONE =         189731.10
       SATURATED ZONE =        -527976.62         SATURATED ZONE =         760562.94
                LAKES =        1.8150D+07                  LAKES =        2.8390D+07

 OVERALL BUDGET ERROR =         391243.03           BUDGET ERROR =         337488.56


  PERCENT DISCREPANCY =              0.38    PERCENT DISCREPANCY =              0.39



