1
 SUMMARY VOLUMETRIC BUDGET FOR GSFLOW 
 DATE: 10 06 1983              CUMULATIVE TIME STEP:    1101
 MODFLOW STRESS PERIOD      1     CURRENT TIME STEP:    1101     ITERATIONS:       6

 -----------------------------------------------------------------------------------

   CUMULATIVE VOLUMES               L**3   RATES FOR THIS TIME STEP           L**3/T
   ------------------                      ------------------------

                                     IN                                         IN
                                     --                                         --
        PRECIPITATION =        1.2923D+07          PRECIPITATION =                  
           STREAMFLOW =                               STREAMFLOW =                  
     GW BOUNDARY FLOW =                         GW BOUNDARY FLOW =                  


                                    OUT                                        OUT
                                    ---                                        ---
   EVAPOTRANSPIRATION =        1.2011D+07     EVAPOTRANSPIRATION =        2740696.96
           STREAMFLOW =        3566884.81             STREAMFLOW =         134710.33
     GW BOUNDARY FLOW =                         GW BOUNDARY FLOW =                  

   INFLOWS - OUTFLOWS =       -2654752.38     INFLOWS - OUTFLOWS =       -2875407.29
             --------                                   --------

 TOTAL STORAGE CHANGE =       -2789094.70         STORAGE CHANGE =       -2868493.16
       --------------                             --------------
         LAND SURFACE =        -523269.89           LAND SURFACE =         -37238.05
            SOIL ZONE =         717578.26              SOIL ZONE =       -1602778.91
     UNSATURATED ZONE =        -251482.33       UNSATURATED ZONE =         -37324.01
       SATURATED ZONE =        -893395.09         SATURATED ZONE =        -204354.75
                LAKES =       -1838525.66                  LAKES =        -986797.44

 OVERALL BUDGET ERROR =         134342.32           BUDGET ERROR =          -6914.13


  PERCENT DISCREPANCY =              0.86    PERCENT DISCREPANCY =             -0.24



