1
 SUMMARY VOLUMETRIC BUDGET FOR GSFLOW 
 DATE: 10 20 1983              CUMULATIVE TIME STEP:    1115
 MODFLOW STRESS PERIOD      1     CURRENT TIME STEP:    1115     ITERATIONS:      20

 -----------------------------------------------------------------------------------

   CUMULATIVE VOLUMES               L**3   RATES FOR THIS TIME STEP           L**3/T
   ------------------                      ------------------------

                                     IN                                         IN
                                     --                                         --
        PRECIPITATION =        3360552.25          PRECIPITATION =                  
           STREAMFLOW =                               STREAMFLOW =                  
     GW BOUNDARY FLOW =                         GW BOUNDARY FLOW =                  


                                    OUT                                        OUT
                                    ---                                        ---
   EVAPOTRANSPIRATION =        8874468.57     EVAPOTRANSPIRATION =        1566997.80
           STREAMFLOW =        2848362.06             STREAMFLOW =         445328.69
     GW BOUNDARY FLOW =                         GW BOUNDARY FLOW =                  

   INFLOWS - OUTFLOWS =       -8362278.38     INFLOWS - OUTFLOWS =       -2012326.48
             --------                                   --------

 TOTAL STORAGE CHANGE =       -8424611.52         STORAGE CHANGE =       -2018074.34
       --------------                             --------------
         LAND SURFACE =         -55745.79           LAND SURFACE =         -17322.32
            SOIL ZONE =       -1167195.02              SOIL ZONE =        -592480.50
     UNSATURATED ZONE =        -415891.57       UNSATURATED ZONE =        -104559.30
       SATURATED ZONE =       -1208240.67         SATURATED ZONE =        -143459.09
                LAKES =       -5577538.47                  LAKES =       -1160253.13

 OVERALL BUDGET ERROR =          62333.14           BUDGET ERROR =           5747.86


  PERCENT DISCREPANCY =              0.53    PERCENT DISCREPANCY =              0.29



