1
 SUMMARY VOLUMETRIC BUDGET FOR GSFLOW 
 DATE: 09 22 1983              CUMULATIVE TIME STEP:    1087
 MODFLOW STRESS PERIOD      1     CURRENT TIME STEP:    1087     ITERATIONS:      19

 -----------------------------------------------------------------------------------

   CUMULATIVE VOLUMES               L**3   RATES FOR THIS TIME STEP           L**3/T
   ------------------                      ------------------------

                                     IN                                         IN
                                     --                                         --
        PRECIPITATION =        1.8004D+07          PRECIPITATION =        1.8004D+07
           STREAMFLOW =                               STREAMFLOW =                  
     GW BOUNDARY FLOW =                         GW BOUNDARY FLOW =                  


                                    OUT                                        OUT
                                    ---                                        ---
   EVAPOTRANSPIRATION =        1.5948D+07     EVAPOTRANSPIRATION =        1827735.12
           STREAMFLOW =        1.2560D+07             STREAMFLOW =        2349880.75
     GW BOUNDARY FLOW =                         GW BOUNDARY FLOW =                  

   INFLOWS - OUTFLOWS =       -1.0504D+07     INFLOWS - OUTFLOWS =        1.3826D+07
             --------                                   --------

 TOTAL STORAGE CHANGE =       -1.0541D+07         STORAGE CHANGE =        1.3773D+07
       --------------                             --------------
         LAND SURFACE =        -344811.53           LAND SURFACE =         209358.83
            SOIL ZONE =        7031411.56              SOIL ZONE =        1.0681D+07
     UNSATURATED ZONE =        -924757.62       UNSATURATED ZONE =         -77956.33
       SATURATED ZONE =       -1180098.58         SATURATED ZONE =         190410.84
                LAKES =       -1.5122D+07                  LAKES =        2770488.00

 OVERALL BUDGET ERROR =          36696.89           BUDGET ERROR =          53042.16


  PERCENT DISCREPANCY =              0.13    PERCENT DISCREPANCY =              0.30



