1
 SUMMARY VOLUMETRIC BUDGET FOR GSFLOW 
 DATE: 10 07 1980              CUMULATIVE TIME STEP:       7
 MODFLOW STRESS PERIOD      1     CURRENT TIME STEP:       7     ITERATIONS:      12

 -----------------------------------------------------------------------------------

   CUMULATIVE VOLUMES               L**3   RATES FOR THIS TIME STEP           L**3/T
   ------------------                      ------------------------

                                     IN                                         IN
                                     --                                         --
        PRECIPITATION =                            PRECIPITATION =                  
           STREAMFLOW =                               STREAMFLOW =                  
     GW BOUNDARY FLOW =                         GW BOUNDARY FLOW =                  


                                    OUT                                        OUT
                                    ---                                        ---
   EVAPOTRANSPIRATION =        1.5466D+07     EVAPOTRANSPIRATION =        1423987.60
           STREAMFLOW =        1672059.45             STREAMFLOW =         183556.67
     GW BOUNDARY FLOW =                         GW BOUNDARY FLOW =                  

   INFLOWS - OUTFLOWS =       -1.7138D+07     INFLOWS - OUTFLOWS =       -1607544.28
             --------                                   --------

 TOTAL STORAGE CHANGE =       -1.7109D+07         STORAGE CHANGE =       -1606966.75
       --------------                             --------------
         LAND SURFACE =                             LAND SURFACE =                  
            SOIL ZONE =       -5379949.07              SOIL ZONE =        -222056.41
     UNSATURATED ZONE =       -1567974.96       UNSATURATED ZONE =         -63138.54
       SATURATED ZONE =       -1197035.84         SATURATED ZONE =        -269128.06
                LAKES =       -8963655.13                  LAKES =       -1052643.75

 OVERALL BUDGET ERROR =         -29227.18           BUDGET ERROR =           -577.52


  PERCENT DISCREPANCY =             -0.17    PERCENT DISCREPANCY =             -0.04



1
 SUMMARY VOLUMETRIC BUDGET FOR GSFLOW 
 DATE: 10 14 1980              CUMULATIVE TIME STEP:      14
 MODFLOW STRESS PERIOD      1     CURRENT TIME STEP:      14     ITERATIONS:       3

 -----------------------------------------------------------------------------------

   CUMULATIVE VOLUMES               L**3   RATES FOR THIS TIME STEP           L**3/T
   ------------------                      ------------------------

                                     IN                                         IN
                                     --                                         --
        PRECIPITATION =        1.3442D+07          PRECIPITATION =        6721104.51
           STREAMFLOW =                               STREAMFLOW =                  
     GW BOUNDARY FLOW =                         GW BOUNDARY FLOW =                  


                                    OUT                                        OUT
                                    ---                                        ---
   EVAPOTRANSPIRATION =        2.2967D+07     EVAPOTRANSPIRATION =         498982.93
           STREAMFLOW =        2279258.24             STREAMFLOW =          34825.50
     GW BOUNDARY FLOW =                         GW BOUNDARY FLOW =                  

   INFLOWS - OUTFLOWS =       -1.1804D+07     INFLOWS - OUTFLOWS =        6187296.08
             --------                                   --------

 TOTAL STORAGE CHANGE =       -1.1919D+07         STORAGE CHANGE =        6112159.30
       --------------                             --------------
         LAND SURFACE =        2552191.79           LAND SURFACE =        1584944.55
            SOIL ZONE =         413784.80              SOIL ZONE =        2950416.52
     UNSATURATED ZONE =       -2011196.72       UNSATURATED ZONE =         -57443.52
       SATURATED ZONE =       -2622743.27         SATURATED ZONE =        -121318.25
                LAKES =       -1.0251D+07                  LAKES =        1755560.00

 OVERALL BUDGET ERROR =         115519.27           BUDGET ERROR =          75136.78


  PERCENT DISCREPANCY =              0.46    PERCENT DISCREPANCY =              1.12



1
 SUMMARY VOLUMETRIC BUDGET FOR GSFLOW 
 DATE: 10 21 1980              CUMULATIVE TIME STEP:      21
 MODFLOW STRESS PERIOD      1     CURRENT TIME STEP:      21     ITERATIONS:       5

 -----------------------------------------------------------------------------------

   CUMULATIVE VOLUMES               L**3   RATES FOR THIS TIME STEP           L**3/T
   ------------------                      ------------------------

                                     IN                                         IN
                                     --                                         --
        PRECIPITATION =        1.6803D+07          PRECIPITATION =                  
           STREAMFLOW =                               STREAMFLOW =                  
     GW BOUNDARY FLOW =                         GW BOUNDARY FLOW =                  


                                    OUT                                        OUT
                                    ---                                        ---
   EVAPOTRANSPIRATION =        2.9710D+07     EVAPOTRANSPIRATION =        1424437.04
           STREAMFLOW =        3039640.61             STREAMFLOW =         364363.34
     GW BOUNDARY FLOW =                         GW BOUNDARY FLOW =                  

   INFLOWS - OUTFLOWS =       -1.5947D+07     INFLOWS - OUTFLOWS =       -1788800.38
             --------                                   --------

 TOTAL STORAGE CHANGE =       -1.6087D+07         STORAGE CHANGE =       -1790326.85
       --------------                             --------------
         LAND SURFACE =         587435.51           LAND SURFACE =        -187987.90
            SOIL ZONE =         286647.74              SOIL ZONE =        -617873.55
     UNSATURATED ZONE =       -2457775.20       UNSATURATED ZONE =         -63382.52
       SATURATED ZONE =       -3652317.52         SATURATED ZONE =        -150098.44
                LAKES =       -1.0851D+07                  LAKES =        -770984.44

 OVERALL BUDGET ERROR =         140245.77           BUDGET ERROR =           1526.46


  PERCENT DISCREPANCY =              0.43    PERCENT DISCREPANCY =              0.09



1
 SUMMARY VOLUMETRIC BUDGET FOR GSFLOW 
 DATE: 10 28 1980              CUMULATIVE TIME STEP:      28
 MODFLOW STRESS PERIOD      1     CURRENT TIME STEP:      28     ITERATIONS:       4

 -----------------------------------------------------------------------------------

   CUMULATIVE VOLUMES               L**3   RATES FOR THIS TIME STEP           L**3/T
   ------------------                      ------------------------

                                     IN                                         IN
                                     --                                         --
        PRECIPITATION =        4.0327D+07          PRECIPITATION =                  
           STREAMFLOW =                               STREAMFLOW =                  
     GW BOUNDARY FLOW =                         GW BOUNDARY FLOW =                  


                                    OUT                                        OUT
                                    ---                                        ---
   EVAPOTRANSPIRATION =        3.6531D+07     EVAPOTRANSPIRATION =         402657.83
           STREAMFLOW =        5483094.95             STREAMFLOW =         342843.62
     GW BOUNDARY FLOW =                         GW BOUNDARY FLOW =                  

   INFLOWS - OUTFLOWS =       -1687771.00     INFLOWS - OUTFLOWS =        -745501.46
             --------                                   --------

 TOTAL STORAGE CHANGE =       -2247792.54         STORAGE CHANGE =        -692828.93
       --------------                             --------------
         LAND SURFACE =        4876305.71           LAND SURFACE =        -161718.54
            SOIL ZONE =        7703027.12              SOIL ZONE =        -221931.29
     UNSATURATED ZONE =       -2739315.30       UNSATURATED ZONE =         -29766.78
       SATURATED ZONE =       -4397759.14         SATURATED ZONE =        -128072.09
                LAKES =       -7690050.93                  LAKES =        -151340.23

 OVERALL BUDGET ERROR =         560021.54           BUDGET ERROR =         -52672.52

  ***WARNING, FLUX RATES OFF > 3%

  PERCENT DISCREPANCY =              1.32    PERCENT DISCREPANCY =             -7.32



1
 SUMMARY VOLUMETRIC BUDGET FOR GSFLOW 
 DATE: 11 04 1980              CUMULATIVE TIME STEP:      35
 MODFLOW STRESS PERIOD      1     CURRENT TIME STEP:      35     ITERATIONS:       6

 -----------------------------------------------------------------------------------

   CUMULATIVE VOLUMES               L**3   RATES FOR THIS TIME STEP           L**3/T
   ------------------                      ------------------------

                                     IN                                         IN
                                     --                                         --
        PRECIPITATION =        5.0408D+07          PRECIPITATION =                  
           STREAMFLOW =                               STREAMFLOW =                  
     GW BOUNDARY FLOW =                         GW BOUNDARY FLOW =                  


                                    OUT                                        OUT
                                    ---                                        ---
   EVAPOTRANSPIRATION =        5.1160D+07     EVAPOTRANSPIRATION =        2772387.34
           STREAMFLOW =        7931990.79             STREAMFLOW =         350029.88
     GW BOUNDARY FLOW =                         GW BOUNDARY FLOW =                  

   INFLOWS - OUTFLOWS =       -8683222.81     INFLOWS - OUTFLOWS =       -3122417.22
             --------                                   --------

 TOTAL STORAGE CHANGE =       -9458815.29         STORAGE CHANGE =       -3132632.88
       --------------                             --------------
         LAND SURFACE =         255110.32           LAND SURFACE =         -53081.36
            SOIL ZONE =        4500224.33              SOIL ZONE =       -1766073.55
     UNSATURATED ZONE =       -2673003.40       UNSATURATED ZONE =         -43622.66
       SATURATED ZONE =       -4931886.06         SATURATED ZONE =        -248405.69
                LAKES =       -6609260.49                  LAKES =       -1021449.63

 OVERALL BUDGET ERROR =         775592.48           BUDGET ERROR =          10215.66


  PERCENT DISCREPANCY =              1.30    PERCENT DISCREPANCY =              0.33



1
 SUMMARY VOLUMETRIC BUDGET FOR GSFLOW 
 DATE: 11 11 1980              CUMULATIVE TIME STEP:      42
 MODFLOW STRESS PERIOD      1     CURRENT TIME STEP:      42     ITERATIONS:       5

 -----------------------------------------------------------------------------------

   CUMULATIVE VOLUMES               L**3   RATES FOR THIS TIME STEP           L**3/T
   ------------------                      ------------------------

                                     IN                                         IN
                                     --                                         --
        PRECIPITATION =        7.9485D+07          PRECIPITATION =        3230734.65
           STREAMFLOW =                               STREAMFLOW =                  
     GW BOUNDARY FLOW =                         GW BOUNDARY FLOW =                  


                                    OUT                                        OUT
                                    ---                                        ---
   EVAPOTRANSPIRATION =        6.8614D+07     EVAPOTRANSPIRATION =        1673330.71
           STREAMFLOW =        9809620.23             STREAMFLOW =         250092.34
     GW BOUNDARY FLOW =                         GW BOUNDARY FLOW =                  

   INFLOWS - OUTFLOWS =        1061073.98     INFLOWS - OUTFLOWS =        1307311.60
             --------                                   --------

 TOTAL STORAGE CHANGE =         -58584.59         STORAGE CHANGE =        1185070.62
       --------------                             --------------
         LAND SURFACE =        3624904.27           LAND SURFACE =         -64050.58
            SOIL ZONE =        9191012.36              SOIL ZONE =         666543.74
     UNSATURATED ZONE =       -2713130.20       UNSATURATED ZONE =          38926.42
       SATURATED ZONE =       -5799504.03         SATURATED ZONE =         -39448.84
                LAKES =       -4361866.99                  LAKES =         583099.88

 OVERALL BUDGET ERROR =        1119658.57           BUDGET ERROR =         122240.98

  ***WARNING, FLUX RATES OFF > 3%

  PERCENT DISCREPANCY =              1.42    PERCENT DISCREPANCY =              3.86



1
 SUMMARY VOLUMETRIC BUDGET FOR GSFLOW 
 DATE: 11 18 1980              CUMULATIVE TIME STEP:      49
 MODFLOW STRESS PERIOD      1     CURRENT TIME STEP:      49     ITERATIONS:       3

 -----------------------------------------------------------------------------------

   CUMULATIVE VOLUMES               L**3   RATES FOR THIS TIME STEP           L**3/T
   ------------------                      ------------------------

                                     IN                                         IN
                                     --                                         --
        PRECIPITATION =        8.5946D+07          PRECIPITATION =                  
           STREAMFLOW =                               STREAMFLOW =                  
     GW BOUNDARY FLOW =                         GW BOUNDARY FLOW =                  


                                    OUT                                        OUT
                                    ---                                        ---
   EVAPOTRANSPIRATION =        7.4698D+07     EVAPOTRANSPIRATION =        1458969.91
           STREAMFLOW =        1.1638D+07             STREAMFLOW =         312770.75
     GW BOUNDARY FLOW =                         GW BOUNDARY FLOW =                  

   INFLOWS - OUTFLOWS =        -389855.83     INFLOWS - OUTFLOWS =       -1771740.66
             --------                                   --------

 TOTAL STORAGE CHANGE =       -1499773.37         STORAGE CHANGE =       -1764921.35
       --------------                             --------------
         LAND SURFACE =        4198519.44           LAND SURFACE =        -457438.43
            SOIL ZONE =        8689781.64              SOIL ZONE =        -590080.53
     UNSATURATED ZONE =       -2653527.46       UNSATURATED ZONE =          14428.82
       SATURATED ZONE =       -7055285.95         SATURATED ZONE =        -171514.59
                LAKES =       -4679261.04                  LAKES =        -560316.63

 OVERALL BUDGET ERROR =        1109917.54           BUDGET ERROR =          -6819.31


  PERCENT DISCREPANCY =              1.28    PERCENT DISCREPANCY =             -0.39



1
 SUMMARY VOLUMETRIC BUDGET FOR GSFLOW 
 DATE: 11 25 1980              CUMULATIVE TIME STEP:      56
 MODFLOW STRESS PERIOD      1     CURRENT TIME STEP:      56     ITERATIONS:       3

 -----------------------------------------------------------------------------------

   CUMULATIVE VOLUMES               L**3   RATES FOR THIS TIME STEP           L**3/T
   ------------------                      ------------------------

                                     IN                                         IN
                                     --                                         --
        PRECIPITATION =        8.9177D+07          PRECIPITATION =                  
           STREAMFLOW =                               STREAMFLOW =                  
     GW BOUNDARY FLOW =                         GW BOUNDARY FLOW =                  


                                    OUT                                        OUT
                                    ---                                        ---
   EVAPOTRANSPIRATION =        8.1345D+07     EVAPOTRANSPIRATION =         264030.45
           STREAMFLOW =        1.4055D+07             STREAMFLOW =         437097.75
     GW BOUNDARY FLOW =                         GW BOUNDARY FLOW =                  

   INFLOWS - OUTFLOWS =       -6222480.61     INFLOWS - OUTFLOWS =        -701128.20
             --------                                   --------

 TOTAL STORAGE CHANGE =       -7450166.86         STORAGE CHANGE =        -719395.59
       --------------                             --------------
         LAND SURFACE =        3974821.62           LAND SURFACE =         -28433.07
            SOIL ZONE =        6858674.60              SOIL ZONE =        -179146.82
     UNSATURATED ZONE =       -2658493.23       UNSATURATED ZONE =         -13645.39
       SATURATED ZONE =       -8276321.19         SATURATED ZONE =        -182275.28
                LAKES =       -7348848.66                  LAKES =        -315895.03

 OVERALL BUDGET ERROR =        1227686.25           BUDGET ERROR =          18267.39


  PERCENT DISCREPANCY =              1.28    PERCENT DISCREPANCY =              2.57



1
 SUMMARY VOLUMETRIC BUDGET FOR GSFLOW 
 DATE: 12 02 1980              CUMULATIVE TIME STEP:      63
 MODFLOW STRESS PERIOD      1     CURRENT TIME STEP:      63     ITERATIONS:       4

 -----------------------------------------------------------------------------------

   CUMULATIVE VOLUMES               L**3   RATES FOR THIS TIME STEP           L**3/T
   ------------------                      ------------------------

                                     IN                                         IN
                                     --                                         --
        PRECIPITATION =        1.0846D+08          PRECIPITATION =        3198161.89
           STREAMFLOW =                               STREAMFLOW =                  
     GW BOUNDARY FLOW =                         GW BOUNDARY FLOW =                  


                                    OUT                                        OUT
                                    ---                                        ---
   EVAPOTRANSPIRATION =        8.8744D+07     EVAPOTRANSPIRATION =        1265022.66
           STREAMFLOW =        1.7318D+07             STREAMFLOW =         437213.25
     GW BOUNDARY FLOW =                         GW BOUNDARY FLOW =                  

   INFLOWS - OUTFLOWS =        2401870.22     INFLOWS - OUTFLOWS =        1495925.99
             --------                                   --------

 TOTAL STORAGE CHANGE =         795663.37         STORAGE CHANGE =        1348482.63
       --------------                             --------------
         LAND SURFACE =        7015310.78           LAND SURFACE =        -910146.22
            SOIL ZONE =        1.0580D+07              SOIL ZONE =        1690633.91
     UNSATURATED ZONE =       -2528010.13       UNSATURATED ZONE =          46611.24
       SATURATED ZONE =       -8980535.96         SATURATED ZONE =         -53714.86
                LAKES =       -5291196.55                  LAKES =         575098.56

 OVERALL BUDGET ERROR =        1606206.86           BUDGET ERROR =         147443.36

  ***WARNING, FLUX RATES OFF > 3%

  PERCENT DISCREPANCY =              1.49    PERCENT DISCREPANCY =              4.72



1
 SUMMARY VOLUMETRIC BUDGET FOR GSFLOW 
 DATE: 12 09 1980              CUMULATIVE TIME STEP:      70
 MODFLOW STRESS PERIOD      1     CURRENT TIME STEP:      70     ITERATIONS:      28

 -----------------------------------------------------------------------------------

   CUMULATIVE VOLUMES               L**3   RATES FOR THIS TIME STEP           L**3/T
   ------------------                      ------------------------

                                     IN                                         IN
                                     --                                         --
        PRECIPITATION =        1.7882D+08          PRECIPITATION =                  
           STREAMFLOW =                               STREAMFLOW =                  
     GW BOUNDARY FLOW =                         GW BOUNDARY FLOW =                  


                                    OUT                                        OUT
                                    ---                                        ---
   EVAPOTRANSPIRATION =        9.1008D+07     EVAPOTRANSPIRATION =         375162.92
           STREAMFLOW =        2.0282D+07             STREAMFLOW =         420980.50
     GW BOUNDARY FLOW =                         GW BOUNDARY FLOW =                  

   INFLOWS - OUTFLOWS =        6.7533D+07     INFLOWS - OUTFLOWS =        -796143.42
             --------                                   --------

 TOTAL STORAGE CHANGE =        6.5339D+07         STORAGE CHANGE =        -817455.85
       --------------                             --------------
         LAND SURFACE =        5.1333D+07           LAND SURFACE =        -232731.00
            SOIL ZONE =        1.3511D+07              SOIL ZONE =        -138155.87
     UNSATURATED ZONE =       -2139347.89       UNSATURATED ZONE =          22088.62
       SATURATED ZONE =       -9961704.82         SATURATED ZONE =        -194315.94
                LAKES =        1.2596D+07                  LAKES =        -274341.66

 OVERALL BUDGET ERROR =        2194248.07           BUDGET ERROR =          21312.43


  PERCENT DISCREPANCY =              1.23    PERCENT DISCREPANCY =              2.64



1
 SUMMARY VOLUMETRIC BUDGET FOR GSFLOW 
 DATE: 12 16 1980              CUMULATIVE TIME STEP:      77
 MODFLOW STRESS PERIOD      1     CURRENT TIME STEP:      77     ITERATIONS:       4

 -----------------------------------------------------------------------------------

   CUMULATIVE VOLUMES               L**3   RATES FOR THIS TIME STEP           L**3/T
   ------------------                      ------------------------

                                     IN                                         IN
                                     --                                         --
        PRECIPITATION =        1.7882D+08          PRECIPITATION =                  
           STREAMFLOW =                               STREAMFLOW =                  
     GW BOUNDARY FLOW =                         GW BOUNDARY FLOW =                  


                                    OUT                                        OUT
                                    ---                                        ---
   EVAPOTRANSPIRATION =        9.7413D+07     EVAPOTRANSPIRATION =        1439476.50
           STREAMFLOW =        2.3263D+07             STREAMFLOW =         430692.75
     GW BOUNDARY FLOW =                         GW BOUNDARY FLOW =                  

   INFLOWS - OUTFLOWS =        5.8148D+07     INFLOWS - OUTFLOWS =       -1870169.25
             --------                                   --------

 TOTAL STORAGE CHANGE =        5.5756D+07         STORAGE CHANGE =       -1900321.28
       --------------                             --------------
         LAND SURFACE =        4.7098D+07           LAND SURFACE =       -1180296.89
            SOIL ZONE =        1.3176D+07              SOIL ZONE =         209192.48
     UNSATURATED ZONE =       -2082205.34       UNSATURATED ZONE =          -9974.46
       SATURATED ZONE =       -1.1314D+07         SATURATED ZONE =        -166087.98
                LAKES =        8878568.23                  LAKES =        -753154.44

 OVERALL BUDGET ERROR =        2391713.91           BUDGET ERROR =          30152.03


  PERCENT DISCREPANCY =              1.35    PERCENT DISCREPANCY =              1.60



1
 SUMMARY VOLUMETRIC BUDGET FOR GSFLOW 
 DATE: 12 23 1980              CUMULATIVE TIME STEP:      84
 MODFLOW STRESS PERIOD      1     CURRENT TIME STEP:      84     ITERATIONS:       3

 -----------------------------------------------------------------------------------

   CUMULATIVE VOLUMES               L**3   RATES FOR THIS TIME STEP           L**3/T
   ------------------                      ------------------------

                                     IN                                         IN
                                     --                                         --
        PRECIPITATION =        1.8522D+08          PRECIPITATION =        3198161.89
           STREAMFLOW =                               STREAMFLOW =                  
     GW BOUNDARY FLOW =                         GW BOUNDARY FLOW =                  


                                    OUT                                        OUT
                                    ---                                        ---
   EVAPOTRANSPIRATION =        1.0554D+08     EVAPOTRANSPIRATION =        1087618.36
           STREAMFLOW =        2.6315D+07             STREAMFLOW =         443558.56
     GW BOUNDARY FLOW =                         GW BOUNDARY FLOW =                  

   INFLOWS - OUTFLOWS =        5.3364D+07     INFLOWS - OUTFLOWS =        1666984.98
             --------                                   --------

 TOTAL STORAGE CHANGE =        5.0706D+07         STORAGE CHANGE =        1555521.75
       --------------                             --------------
         LAND SURFACE =        4.2065D+07           LAND SURFACE =        -263687.22
            SOIL ZONE =        1.6152D+07              SOIL ZONE =        1300862.24
     UNSATURATED ZONE =       -1970087.92       UNSATURATED ZONE =          76599.14
       SATURATED ZONE =       -1.2227D+07         SATURATED ZONE =         -79709.88
                LAKES =        6686783.79                  LAKES =         521457.47

 OVERALL BUDGET ERROR =        2657442.12           BUDGET ERROR =         111463.23

  ***WARNING, FLUX RATES OFF > 3%

  PERCENT DISCREPANCY =              1.45    PERCENT DISCREPANCY =              3.55



1
 SUMMARY VOLUMETRIC BUDGET FOR GSFLOW 
 DATE: 12 30 1980              CUMULATIVE TIME STEP:      91
 MODFLOW STRESS PERIOD      1     CURRENT TIME STEP:      91     ITERATIONS:       4

 -----------------------------------------------------------------------------------

   CUMULATIVE VOLUMES               L**3   RATES FOR THIS TIME STEP           L**3/T
   ------------------                      ------------------------

                                     IN                                         IN
                                     --                                         --
        PRECIPITATION =        1.8522D+08          PRECIPITATION =                  
           STREAMFLOW =                               STREAMFLOW =                  
     GW BOUNDARY FLOW =                         GW BOUNDARY FLOW =                  


                                    OUT                                        OUT
                                    ---                                        ---
   EVAPOTRANSPIRATION =        1.1533D+08     EVAPOTRANSPIRATION =        1179334.48
           STREAMFLOW =        2.9399D+07             STREAMFLOW =         445276.25
     GW BOUNDARY FLOW =                         GW BOUNDARY FLOW =                  

   INFLOWS - OUTFLOWS =        4.0493D+07     INFLOWS - OUTFLOWS =       -1624610.73
             --------                                   --------

 TOTAL STORAGE CHANGE =        3.7642D+07         STORAGE CHANGE =       -1642239.08
       --------------                             --------------
         LAND SURFACE =        3.5930D+07           LAND SURFACE =        -560583.46
            SOIL ZONE =        1.4726D+07              SOIL ZONE =        -324701.39
     UNSATURATED ZONE =       -1858507.82       UNSATURATED ZONE =           8055.77
       SATURATED ZONE =       -1.3297D+07         SATURATED ZONE =        -164450.50
                LAKES =        2141596.11                  LAKES =        -600559.50

 OVERALL BUDGET ERROR =        2850862.79           BUDGET ERROR =          17628.36


  PERCENT DISCREPANCY =              1.55    PERCENT DISCREPANCY =              1.08



1
 SUMMARY VOLUMETRIC BUDGET FOR GSFLOW 
 DATE: 01 06 1981              CUMULATIVE TIME STEP:      98
 MODFLOW STRESS PERIOD      1     CURRENT TIME STEP:      98     ITERATIONS:      14

 -----------------------------------------------------------------------------------

   CUMULATIVE VOLUMES               L**3   RATES FOR THIS TIME STEP           L**3/T
   ------------------                      ------------------------

                                     IN                                         IN
                                     --                                         --
        PRECIPITATION =        2.0923D+08          PRECIPITATION =                  
           STREAMFLOW =                               STREAMFLOW =                  
     GW BOUNDARY FLOW =                         GW BOUNDARY FLOW =                  


                                    OUT                                        OUT
                                    ---                                        ---
   EVAPOTRANSPIRATION =        1.2268D+08     EVAPOTRANSPIRATION =        1109559.91
           STREAMFLOW =        3.2519D+07             STREAMFLOW =         445539.53
     GW BOUNDARY FLOW =                         GW BOUNDARY FLOW =                  

   INFLOWS - OUTFLOWS =        5.4024D+07     INFLOWS - OUTFLOWS =       -1555099.45
             --------                                   --------

 TOTAL STORAGE CHANGE =        5.0530D+07         STORAGE CHANGE =       -1592858.87
       --------------                             --------------
         LAND SURFACE =        4.1379D+07           LAND SURFACE =        -406171.19
            SOIL ZONE =        1.7921D+07              SOIL ZONE =        -492473.22
     UNSATURATED ZONE =       -1413933.09       UNSATURATED ZONE =          60457.34
       SATURATED ZONE =       -1.3945D+07         SATURATED ZONE =        -191590.63
                LAKES =        6588975.32                  LAKES =        -563081.19

 OVERALL BUDGET ERROR =        3493950.33           BUDGET ERROR =          37759.43


  PERCENT DISCREPANCY =              1.68    PERCENT DISCREPANCY =              2.40



1
 SUMMARY VOLUMETRIC BUDGET FOR GSFLOW 
 DATE: 01 13 1981              CUMULATIVE TIME STEP:     105
 MODFLOW STRESS PERIOD      1     CURRENT TIME STEP:     105     ITERATIONS:      30

 -----------------------------------------------------------------------------------

   CUMULATIVE VOLUMES               L**3   RATES FOR THIS TIME STEP           L**3/T
   ------------------                      ------------------------

                                     IN                                         IN
                                     --                                         --
        PRECIPITATION =        2.1223D+08          PRECIPITATION =                  
           STREAMFLOW =                               STREAMFLOW =                  
     GW BOUNDARY FLOW =                         GW BOUNDARY FLOW =                  


                                    OUT                                        OUT
                                    ---                                        ---
   EVAPOTRANSPIRATION =        1.3081D+08     EVAPOTRANSPIRATION =        1373560.73
           STREAMFLOW =        3.5649D+07             STREAMFLOW =         457519.94
     GW BOUNDARY FLOW =                         GW BOUNDARY FLOW =                  

   INFLOWS - OUTFLOWS =        4.5762D+07     INFLOWS - OUTFLOWS =       -1831080.67
             --------                                   --------

 TOTAL STORAGE CHANGE =        4.2086D+07         STORAGE CHANGE =       -1845084.77
       --------------                             --------------
         LAND SURFACE =        3.9693D+07           LAND SURFACE =        -507648.25
            SOIL ZONE =        1.5728D+07              SOIL ZONE =        -436506.68
     UNSATURATED ZONE =       -1283866.99       UNSATURATED ZONE =         -14911.50
       SATURATED ZONE =       -1.5162D+07         SATURATED ZONE =        -163653.34
                LAKES =        3111061.29                  LAKES =        -722365.00

 OVERALL BUDGET ERROR =        3676225.55           BUDGET ERROR =          14004.10


  PERCENT DISCREPANCY =              1.75    PERCENT DISCREPANCY =              0.76



1
 SUMMARY VOLUMETRIC BUDGET FOR GSFLOW 
 DATE: 01 20 1981              CUMULATIVE TIME STEP:     112
 MODFLOW STRESS PERIOD      1     CURRENT TIME STEP:     112     ITERATIONS:      12

 -----------------------------------------------------------------------------------

   CUMULATIVE VOLUMES               L**3   RATES FOR THIS TIME STEP           L**3/T
   ------------------                      ------------------------

                                     IN                                         IN
                                     --                                         --
        PRECIPITATION =        2.2423D+08          PRECIPITATION =        6001392.59
           STREAMFLOW =                               STREAMFLOW =                  
     GW BOUNDARY FLOW =                         GW BOUNDARY FLOW =                  


                                    OUT                                        OUT
                                    ---                                        ---
   EVAPOTRANSPIRATION =        1.4170D+08     EVAPOTRANSPIRATION =        1828807.00
           STREAMFLOW =        3.9240D+07             STREAMFLOW =         485552.34
     GW BOUNDARY FLOW =                         GW BOUNDARY FLOW =                  

   INFLOWS - OUTFLOWS =        4.3292D+07     INFLOWS - OUTFLOWS =        3687033.25
             --------                                   --------

 TOTAL STORAGE CHANGE =        3.9419D+07         STORAGE CHANGE =        3600792.84
       --------------                             --------------
         LAND SURFACE =        3.7101D+07           LAND SURFACE =         679050.55
            SOIL ZONE =        1.7164D+07              SOIL ZONE =        1238468.76
     UNSATURATED ZONE =       -1028944.91       UNSATURATED ZONE =         106227.90
       SATURATED ZONE =       -1.5783D+07         SATURATED ZONE =          75122.77
                LAKES =        1965671.68                  LAKES =        1501922.88

 OVERALL BUDGET ERROR =        3873063.53           BUDGET ERROR =          86240.40


  PERCENT DISCREPANCY =              1.74    PERCENT DISCREPANCY =              1.45



1
 SUMMARY VOLUMETRIC BUDGET FOR GSFLOW 
 DATE: 01 27 1981              CUMULATIVE TIME STEP:     119
 MODFLOW STRESS PERIOD      1     CURRENT TIME STEP:     119     ITERATIONS:       3

 -----------------------------------------------------------------------------------

   CUMULATIVE VOLUMES               L**3   RATES FOR THIS TIME STEP           L**3/T
   ------------------                      ------------------------

                                     IN                                         IN
                                     --                                         --
        PRECIPITATION =        3.3525D+08          PRECIPITATION =        6.0014D+07
           STREAMFLOW =                               STREAMFLOW =                  
     GW BOUNDARY FLOW =                         GW BOUNDARY FLOW =                  


                                    OUT                                        OUT
                                    ---                                        ---
   EVAPOTRANSPIRATION =        1.5064D+08     EVAPOTRANSPIRATION =         667323.10
           STREAMFLOW =        4.1752D+07             STREAMFLOW =         345817.88
     GW BOUNDARY FLOW =                         GW BOUNDARY FLOW =                  

   INFLOWS - OUTFLOWS =        1.4286D+08     INFLOWS - OUTFLOWS =        5.9001D+07
             --------                                   --------

 TOTAL STORAGE CHANGE =        1.3855D+08         STORAGE CHANGE =        5.8499D+07
       --------------                             --------------
         LAND SURFACE =        1.0706D+08           LAND SURFACE =        4.1069D+07
            SOIL ZONE =        1.8991D+07              SOIL ZONE =        1578568.00
     UNSATURATED ZONE =        -529097.07       UNSATURATED ZONE =         102861.89
       SATURATED ZONE =       -1.6493D+07         SATURATED ZONE =         -61053.28
                LAKES =        2.9513D+07                  LAKES =        1.5810D+07

 OVERALL BUDGET ERROR =        4314079.09           BUDGET ERROR =         501811.20


  PERCENT DISCREPANCY =              1.30    PERCENT DISCREPANCY =              0.84



1
 SUMMARY VOLUMETRIC BUDGET FOR GSFLOW 
 DATE: 02 03 1981              CUMULATIVE TIME STEP:     126
 MODFLOW STRESS PERIOD      1     CURRENT TIME STEP:     126     ITERATIONS:      33

 -----------------------------------------------------------------------------------

   CUMULATIVE VOLUMES               L**3   RATES FOR THIS TIME STEP           L**3/T
   ------------------                      ------------------------

                                     IN                                         IN
                                     --                                         --
        PRECIPITATION =        4.0137D+08          PRECIPITATION =                  
           STREAMFLOW =                               STREAMFLOW =                  
     GW BOUNDARY FLOW =                         GW BOUNDARY FLOW =                  


                                    OUT                                        OUT
                                    ---                                        ---
   EVAPOTRANSPIRATION =        1.5430D+08     EVAPOTRANSPIRATION =         907247.53
           STREAMFLOW =        4.4232D+07             STREAMFLOW =         354895.75
     GW BOUNDARY FLOW =                         GW BOUNDARY FLOW =                  

   INFLOWS - OUTFLOWS =        2.0283D+08     INFLOWS - OUTFLOWS =       -1262143.28
             --------                                   --------

 TOTAL STORAGE CHANGE =        1.9803D+08         STORAGE CHANGE =       -1278214.57
       --------------                             --------------
         LAND SURFACE =        1.5342D+08           LAND SURFACE =        -497557.57
            SOIL ZONE =        1.7979D+07              SOIL ZONE =        -138479.02
     UNSATURATED ZONE =        -254575.62       UNSATURATED ZONE =           2215.82
       SATURATED ZONE =       -1.7715D+07         SATURATED ZONE =        -168147.23
                LAKES =        4.4605D+07                  LAKES =        -476246.56

 OVERALL BUDGET ERROR =        4798375.02           BUDGET ERROR =          16071.29


  PERCENT DISCREPANCY =              1.20    PERCENT DISCREPANCY =              1.27



1
 SUMMARY VOLUMETRIC BUDGET FOR GSFLOW 
 DATE: 02 10 1981              CUMULATIVE TIME STEP:     133
 MODFLOW STRESS PERIOD      1     CURRENT TIME STEP:     133     ITERATIONS:       3

 -----------------------------------------------------------------------------------

   CUMULATIVE VOLUMES               L**3   RATES FOR THIS TIME STEP           L**3/T
   ------------------                      ------------------------

                                     IN                                         IN
                                     --                                         --
        PRECIPITATION =        4.1375D+08          PRECIPITATION =        3095932.43
           STREAMFLOW =                               STREAMFLOW =                  
     GW BOUNDARY FLOW =                         GW BOUNDARY FLOW =                  


                                    OUT                                        OUT
                                    ---                                        ---
   EVAPOTRANSPIRATION =        1.5977D+08     EVAPOTRANSPIRATION =         587441.20
           STREAMFLOW =        4.6626D+07             STREAMFLOW =         340307.03
     GW BOUNDARY FLOW =                         GW BOUNDARY FLOW =                  

   INFLOWS - OUTFLOWS =        2.0736D+08     INFLOWS - OUTFLOWS =        2168184.20
             --------                                   --------

 TOTAL STORAGE CHANGE =        2.0235D+08         STORAGE CHANGE =        2124966.46
       --------------                             --------------
         LAND SURFACE =        1.5902D+08           LAND SURFACE =        1678211.91
            SOIL ZONE =        1.7837D+07              SOIL ZONE =         177232.03
     UNSATURATED ZONE =        -319040.88       UNSATURATED ZONE =          -7666.26
       SATURATED ZONE =       -1.8860D+07         SATURATED ZONE =        -156398.75
                LAKES =        4.4676D+07                  LAKES =         433587.53

 OVERALL BUDGET ERROR =        5006865.90           BUDGET ERROR =          43217.74


  PERCENT DISCREPANCY =              1.22    PERCENT DISCREPANCY =              1.41



1
 SUMMARY VOLUMETRIC BUDGET FOR GSFLOW 
 DATE: 02 17 1981              CUMULATIVE TIME STEP:     140
 MODFLOW STRESS PERIOD      1     CURRENT TIME STEP:     140     ITERATIONS:      26

 -----------------------------------------------------------------------------------

   CUMULATIVE VOLUMES               L**3   RATES FOR THIS TIME STEP           L**3/T
   ------------------                      ------------------------

                                     IN                                         IN
                                     --                                         --
        PRECIPITATION =        4.6328D+08          PRECIPITATION =                  
           STREAMFLOW =                               STREAMFLOW =                  
     GW BOUNDARY FLOW =                         GW BOUNDARY FLOW =                  


                                    OUT                                        OUT
                                    ---                                        ---
   EVAPOTRANSPIRATION =        1.7115D+08     EVAPOTRANSPIRATION =        2634928.09
           STREAMFLOW =        4.8976D+07             STREAMFLOW =         285309.78
     GW BOUNDARY FLOW =                         GW BOUNDARY FLOW =                  

   INFLOWS - OUTFLOWS =        2.4316D+08     INFLOWS - OUTFLOWS =       -2920237.87
             --------                                   --------

 TOTAL STORAGE CHANGE =        2.3739D+08         STORAGE CHANGE =       -2974196.79
       --------------                             --------------
         LAND SURFACE =        1.7469D+08           LAND SURFACE =       -2197532.86
            SOIL ZONE =        2.4160D+07              SOIL ZONE =         -18390.60
     UNSATURATED ZONE =         306330.05       UNSATURATED ZONE =          77778.09
       SATURATED ZONE =       -1.9136D+07         SATURATED ZONE =        -141859.91
                LAKES =        5.7371D+07                  LAKES =        -694191.50

 OVERALL BUDGET ERROR =        5762304.67           BUDGET ERROR =          53958.92


  PERCENT DISCREPANCY =              1.25    PERCENT DISCREPANCY =              1.83



1
 SUMMARY VOLUMETRIC BUDGET FOR GSFLOW 
 DATE: 02 24 1981              CUMULATIVE TIME STEP:     147
 MODFLOW STRESS PERIOD      1     CURRENT TIME STEP:     147     ITERATIONS:      16

 -----------------------------------------------------------------------------------

   CUMULATIVE VOLUMES               L**3   RATES FOR THIS TIME STEP           L**3/T
   ------------------                      ------------------------

                                     IN                                         IN
                                     --                                         --
        PRECIPITATION =        4.8805D+08          PRECIPITATION =        1.8576D+07
           STREAMFLOW =                               STREAMFLOW =                  
     GW BOUNDARY FLOW =                         GW BOUNDARY FLOW =                  


                                    OUT                                        OUT
                                    ---                                        ---
   EVAPOTRANSPIRATION =        1.8462D+08     EVAPOTRANSPIRATION =        1367306.47
           STREAMFLOW =        5.0059D+07             STREAMFLOW =         143109.52
     GW BOUNDARY FLOW =                         GW BOUNDARY FLOW =                  

   INFLOWS - OUTFLOWS =        2.5337D+08     INFLOWS - OUTFLOWS =        1.7065D+07
             --------                                   --------

 TOTAL STORAGE CHANGE =        2.4717D+08         STORAGE CHANGE =        1.6922D+07
       --------------                             --------------
         LAND SURFACE =        1.7577D+08           LAND SURFACE =        1.1074D+07
            SOIL ZONE =        2.6324D+07              SOIL ZONE =         448973.17
     UNSATURATED ZONE =       -1454546.03       UNSATURATED ZONE =         265808.92
       SATURATED ZONE =       -1.7551D+07         SATURATED ZONE =          -3256.33
                LAKES =        6.4080D+07                  LAKES =        5135965.50

 OVERALL BUDGET ERROR =        6199246.14           BUDGET ERROR =         143284.94


  PERCENT DISCREPANCY =              1.28    PERCENT DISCREPANCY =              0.77



1
 SUMMARY VOLUMETRIC BUDGET FOR GSFLOW 
 DATE: 03 03 1981              CUMULATIVE TIME STEP:     154
 MODFLOW STRESS PERIOD      1     CURRENT TIME STEP:     154     ITERATIONS:      21

 -----------------------------------------------------------------------------------

   CUMULATIVE VOLUMES               L**3   RATES FOR THIS TIME STEP           L**3/T
   ------------------                      ------------------------

                                     IN                                         IN
                                     --                                         --
        PRECIPITATION =        5.0056D+08          PRECIPITATION =                  
           STREAMFLOW =                               STREAMFLOW =                  
     GW BOUNDARY FLOW =                         GW BOUNDARY FLOW =                  


                                    OUT                                        OUT
                                    ---                                        ---
   EVAPOTRANSPIRATION =        1.9329D+08     EVAPOTRANSPIRATION =        2203373.09
           STREAMFLOW =        5.1106D+07             STREAMFLOW =         161585.09
     GW BOUNDARY FLOW =                         GW BOUNDARY FLOW =                  

   INFLOWS - OUTFLOWS =        2.5616D+08     INFLOWS - OUTFLOWS =       -2364958.19
             --------                                   --------

 TOTAL STORAGE CHANGE =        2.4962D+08         STORAGE CHANGE =       -2391175.66
       --------------                             --------------
         LAND SURFACE =        1.7857D+08           LAND SURFACE =       -1130017.71
            SOIL ZONE =        2.4629D+07              SOIL ZONE =        -310062.83
     UNSATURATED ZONE =        -825577.54       UNSATURATED ZONE =         -24973.52
       SATURATED ZONE =       -1.8781D+07         SATURATED ZONE =        -176262.41
                LAKES =        6.6030D+07                  LAKES =        -749859.19

 OVERALL BUDGET ERROR =        6541986.15           BUDGET ERROR =          26217.47


  PERCENT DISCREPANCY =              1.32    PERCENT DISCREPANCY =              1.10



1
 SUMMARY VOLUMETRIC BUDGET FOR GSFLOW 
 DATE: 03 10 1981              CUMULATIVE TIME STEP:     161
 MODFLOW STRESS PERIOD      1     CURRENT TIME STEP:     161     ITERATIONS:      27

 -----------------------------------------------------------------------------------

   CUMULATIVE VOLUMES               L**3   RATES FOR THIS TIME STEP           L**3/T
   ------------------                      ------------------------

                                     IN                                         IN
                                     --                                         --
        PRECIPITATION =        5.0378D+08          PRECIPITATION =        3221591.34
           STREAMFLOW =                               STREAMFLOW =                  
     GW BOUNDARY FLOW =                         GW BOUNDARY FLOW =                  


                                    OUT                                        OUT
                                    ---                                        ---
   EVAPOTRANSPIRATION =        2.1050D+08     EVAPOTRANSPIRATION =        1945441.69
           STREAMFLOW =        5.2250D+07             STREAMFLOW =         164232.86
     GW BOUNDARY FLOW =                         GW BOUNDARY FLOW =                  

   INFLOWS - OUTFLOWS =        2.4103D+08     INFLOWS - OUTFLOWS =        1111916.78
             --------                                   --------

 TOTAL STORAGE CHANGE =        2.3424D+08         STORAGE CHANGE =        1046980.78
       --------------                             --------------
         LAND SURFACE =        1.6651D+08           LAND SURFACE =       -1622433.65
            SOIL ZONE =        2.5301D+07              SOIL ZONE =        1094197.15
     UNSATURATED ZONE =       -1019550.84       UNSATURATED ZONE =         117774.42
       SATURATED ZONE =       -1.9413D+07         SATURATED ZONE =          96578.73
                LAKES =        6.2866D+07                  LAKES =        1360864.13

 OVERALL BUDGET ERROR =        6792817.10           BUDGET ERROR =          64936.00


  PERCENT DISCREPANCY =              1.36    PERCENT DISCREPANCY =              2.04



1
 SUMMARY VOLUMETRIC BUDGET FOR GSFLOW 
 DATE: 03 17 1981              CUMULATIVE TIME STEP:     168
 MODFLOW STRESS PERIOD      1     CURRENT TIME STEP:     168     ITERATIONS:      37

 -----------------------------------------------------------------------------------

   CUMULATIVE VOLUMES               L**3   RATES FOR THIS TIME STEP           L**3/T
   ------------------                      ------------------------

                                     IN                                         IN
                                     --                                         --
        PRECIPITATION =        5.1345D+08          PRECIPITATION =        3221591.34
           STREAMFLOW =                               STREAMFLOW =                  
     GW BOUNDARY FLOW =                         GW BOUNDARY FLOW =                  


                                    OUT                                        OUT
                                    ---                                        ---
   EVAPOTRANSPIRATION =        2.2521D+08     EVAPOTRANSPIRATION =        1067717.01
           STREAMFLOW =        5.3446D+07             STREAMFLOW =         174601.38
     GW BOUNDARY FLOW =                         GW BOUNDARY FLOW =                  

   INFLOWS - OUTFLOWS =        2.3479D+08     INFLOWS - OUTFLOWS =        1979272.95
             --------                                   --------

 TOTAL STORAGE CHANGE =        2.2773D+08         STORAGE CHANGE =        1934282.23
       --------------                             --------------
         LAND SURFACE =        1.6276D+08           LAND SURFACE =        1576749.60
            SOIL ZONE =        2.4531D+07              SOIL ZONE =         -31712.08
     UNSATURATED ZONE =        -988415.45       UNSATURATED ZONE =        -122510.87
       SATURATED ZONE =       -2.0223D+07         SATURATED ZONE =         -11233.48
                LAKES =        6.1648D+07                  LAKES =         522989.06

 OVERALL BUDGET ERROR =        7066662.93           BUDGET ERROR =          44990.71


  PERCENT DISCREPANCY =              1.39    PERCENT DISCREPANCY =              1.41



1
 SUMMARY VOLUMETRIC BUDGET FOR GSFLOW 
 DATE: 03 24 1981              CUMULATIVE TIME STEP:     175
 MODFLOW STRESS PERIOD      1     CURRENT TIME STEP:     175     ITERATIONS:      41

 -----------------------------------------------------------------------------------

   CUMULATIVE VOLUMES               L**3   RATES FOR THIS TIME STEP           L**3/T
   ------------------                      ------------------------

                                     IN                                         IN
                                     --                                         --
        PRECIPITATION =        5.7144D+08          PRECIPITATION =        6443182.67
           STREAMFLOW =                               STREAMFLOW =                  
     GW BOUNDARY FLOW =                         GW BOUNDARY FLOW =                  


                                    OUT                                        OUT
                                    ---                                        ---
   EVAPOTRANSPIRATION =        2.3945D+08     EVAPOTRANSPIRATION =        1737967.56
           STREAMFLOW =        5.4584D+07             STREAMFLOW =         165413.23
     GW BOUNDARY FLOW =                         GW BOUNDARY FLOW =                  

   INFLOWS - OUTFLOWS =        2.7740D+08     INFLOWS - OUTFLOWS =        4539801.87
             --------                                   --------

 TOTAL STORAGE CHANGE =        2.6970D+08         STORAGE CHANGE =        4468816.70
       --------------                             --------------
         LAND SURFACE =        1.9079D+08           LAND SURFACE =        1628201.84
            SOIL ZONE =        2.6547D+07              SOIL ZONE =         620713.54
     UNSATURATED ZONE =        -581742.68       UNSATURATED ZONE =         122422.33
       SATURATED ZONE =       -2.0804D+07         SATURATED ZONE =          61648.73
                LAKES =        7.3754D+07                  LAKES =        2035830.25

 OVERALL BUDGET ERROR =        7694897.00           BUDGET ERROR =          70985.17


  PERCENT DISCREPANCY =              1.36    PERCENT DISCREPANCY =              1.11



1
 SUMMARY VOLUMETRIC BUDGET FOR GSFLOW 
 DATE: 03 31 1981              CUMULATIVE TIME STEP:     182
 MODFLOW STRESS PERIOD      1     CURRENT TIME STEP:     182     ITERATIONS:      33

 -----------------------------------------------------------------------------------

   CUMULATIVE VOLUMES               L**3   RATES FOR THIS TIME STEP           L**3/T
   ------------------                      ------------------------

                                     IN                                         IN
                                     --                                         --
        PRECIPITATION =        6.3587D+08          PRECIPITATION =        6443182.67
           STREAMFLOW =                               STREAMFLOW =                  
     GW BOUNDARY FLOW =                         GW BOUNDARY FLOW =                  


                                    OUT                                        OUT
                                    ---                                        ---
   EVAPOTRANSPIRATION =        2.5424D+08     EVAPOTRANSPIRATION =        1161920.37
           STREAMFLOW =        5.5764D+07             STREAMFLOW =         154628.45
     GW BOUNDARY FLOW =                         GW BOUNDARY FLOW =                  

   INFLOWS - OUTFLOWS =        3.2587D+08     INFLOWS - OUTFLOWS =        5126633.85
             --------                                   --------

 TOTAL STORAGE CHANGE =        3.1761D+08         STORAGE CHANGE =        5050978.62
       --------------                             --------------
         LAND SURFACE =        2.1630D+08           LAND SURFACE =        2846212.36
            SOIL ZONE =        2.8028D+07              SOIL ZONE =         355110.61
     UNSATURATED ZONE =       -4222936.77       UNSATURATED ZONE =         139921.95
       SATURATED ZONE =       -1.7531D+07         SATURATED ZONE =         -77987.42
                LAKES =        9.5043D+07                  LAKES =        1787721.13

 OVERALL BUDGET ERROR =        8254672.58           BUDGET ERROR =          75655.23


  PERCENT DISCREPANCY =              1.31    PERCENT DISCREPANCY =              1.18



1
 SUMMARY VOLUMETRIC BUDGET FOR GSFLOW 
 DATE: 04 07 1981              CUMULATIVE TIME STEP:     189
 MODFLOW STRESS PERIOD      1     CURRENT TIME STEP:     189     ITERATIONS:      30

 -----------------------------------------------------------------------------------

   CUMULATIVE VOLUMES               L**3   RATES FOR THIS TIME STEP           L**3/T
   ------------------                      ------------------------

                                     IN                                         IN
                                     --                                         --
        PRECIPITATION =        6.5328D+08          PRECIPITATION =                  
           STREAMFLOW =                               STREAMFLOW =                  
     GW BOUNDARY FLOW =                         GW BOUNDARY FLOW =                  


                                    OUT                                        OUT
                                    ---                                        ---
   EVAPOTRANSPIRATION =        2.7777D+08     EVAPOTRANSPIRATION =        4299035.93
           STREAMFLOW =        5.6903D+07             STREAMFLOW =         205152.17
     GW BOUNDARY FLOW =                         GW BOUNDARY FLOW =                  

   INFLOWS - OUTFLOWS =        3.1861D+08     INFLOWS - OUTFLOWS =       -4504188.11
             --------                                   --------

 TOTAL STORAGE CHANGE =        3.0985D+08         STORAGE CHANGE =       -4534631.99
       --------------                             --------------
         LAND SURFACE =        1.9516D+08           LAND SURFACE =       -6725272.16
            SOIL ZONE =        2.8953D+07              SOIL ZONE =          13638.14
     UNSATURATED ZONE =       -3127765.70       UNSATURATED ZONE =         193855.99
       SATURATED ZONE =       -1.6435D+07         SATURATED ZONE =         273006.91
                LAKES =        1.0530D+08                  LAKES =        1710139.13

 OVERALL BUDGET ERROR =        8767797.96           BUDGET ERROR =          30443.89


  PERCENT DISCREPANCY =              1.35    PERCENT DISCREPANCY =              0.67



1
 SUMMARY VOLUMETRIC BUDGET FOR GSFLOW 
 DATE: 04 14 1981              CUMULATIVE TIME STEP:     196
 MODFLOW STRESS PERIOD      1     CURRENT TIME STEP:     196     ITERATIONS:      33

 -----------------------------------------------------------------------------------

   CUMULATIVE VOLUMES               L**3   RATES FOR THIS TIME STEP           L**3/T
   ------------------                      ------------------------

                                     IN                                         IN
                                     --                                         --
        PRECIPITATION =        6.5328D+08          PRECIPITATION =                  
           STREAMFLOW =                               STREAMFLOW =                  
     GW BOUNDARY FLOW =                         GW BOUNDARY FLOW =                  


                                    OUT                                        OUT
                                    ---                                        ---
   EVAPOTRANSPIRATION =        3.0756D+08     EVAPOTRANSPIRATION =        5152476.74
           STREAMFLOW =        5.8151D+07             STREAMFLOW =         171655.88
     GW BOUNDARY FLOW =                         GW BOUNDARY FLOW =                  

   INFLOWS - OUTFLOWS =        2.8757D+08     INFLOWS - OUTFLOWS =       -5324132.62
             --------                                   --------

 TOTAL STORAGE CHANGE =        2.7866D+08         STORAGE CHANGE =       -5337455.13
       --------------                             --------------
         LAND SURFACE =        1.4953D+08           LAND SURFACE =       -7568097.89
            SOIL ZONE =        2.4607D+07              SOIL ZONE =        -907647.93
     UNSATURATED ZONE =       -1273337.59       UNSATURATED ZONE =         328082.47
       SATURATED ZONE =       -1.4800D+07         SATURATED ZONE =         269082.97
                LAKES =        1.2060D+08                  LAKES =        2541125.25

 OVERALL BUDGET ERROR =        8914169.31           BUDGET ERROR =          13322.51


  PERCENT DISCREPANCY =              1.37    PERCENT DISCREPANCY =              0.25



1
 SUMMARY VOLUMETRIC BUDGET FOR GSFLOW 
 DATE: 04 21 1981              CUMULATIVE TIME STEP:     203
 MODFLOW STRESS PERIOD      1     CURRENT TIME STEP:     203     ITERATIONS:      52

 -----------------------------------------------------------------------------------

   CUMULATIVE VOLUMES               L**3   RATES FOR THIS TIME STEP           L**3/T
   ------------------                      ------------------------

                                     IN                                         IN
                                     --                                         --
        PRECIPITATION =        6.7418D+08          PRECIPITATION =                  
           STREAMFLOW =                               STREAMFLOW =                  
     GW BOUNDARY FLOW =                         GW BOUNDARY FLOW =                  


                                    OUT                                        OUT
                                    ---                                        ---
   EVAPOTRANSPIRATION =        3.3756D+08     EVAPOTRANSPIRATION =        5644599.17
           STREAMFLOW =        5.9365D+07             STREAMFLOW =         169583.63
     GW BOUNDARY FLOW =                         GW BOUNDARY FLOW =                  

   INFLOWS - OUTFLOWS =        2.7725D+08     INFLOWS - OUTFLOWS =       -5814182.80
             --------                                   --------

 TOTAL STORAGE CHANGE =        2.6816D+08         STORAGE CHANGE =       -5823531.52
       --------------                             --------------
         LAND SURFACE =        1.2661D+08           LAND SURFACE =       -3418283.49
            SOIL ZONE =        2.2627D+07              SOIL ZONE =       -2025395.09
     UNSATURATED ZONE =         311842.85       UNSATURATED ZONE =         194611.51
       SATURATED ZONE =       -1.4845D+07         SATURATED ZONE =         -93590.67
                LAKES =        1.3346D+08                  LAKES =        -480873.78

 OVERALL BUDGET ERROR =        9096158.62           BUDGET ERROR =           9348.72


  PERCENT DISCREPANCY =              1.36    PERCENT DISCREPANCY =              0.16



1
 SUMMARY VOLUMETRIC BUDGET FOR GSFLOW 
 DATE: 04 28 1981              CUMULATIVE TIME STEP:     210
 MODFLOW STRESS PERIOD      1     CURRENT TIME STEP:     210     ITERATIONS:      11

 -----------------------------------------------------------------------------------

   CUMULATIVE VOLUMES               L**3   RATES FOR THIS TIME STEP           L**3/T
   ------------------                      ------------------------

                                     IN                                         IN
                                     --                                         --
        PRECIPITATION =        6.8114D+08          PRECIPITATION =                  
           STREAMFLOW =                               STREAMFLOW =                  
     GW BOUNDARY FLOW =                         GW BOUNDARY FLOW =                  


                                    OUT                                        OUT
                                    ---                                        ---
   EVAPOTRANSPIRATION =        3.7931D+08     EVAPOTRANSPIRATION =        5718739.31
           STREAMFLOW =        6.0576D+07             STREAMFLOW =         169029.52
     GW BOUNDARY FLOW =                         GW BOUNDARY FLOW =                  

   INFLOWS - OUTFLOWS =        2.4126D+08     INFLOWS - OUTFLOWS =       -5887768.82
             --------                                   --------

 TOTAL STORAGE CHANGE =        2.3196D+08         STORAGE CHANGE =       -6039177.63
       --------------                             --------------
         LAND SURFACE =        1.0030D+08           LAND SURFACE =       -4231342.57
            SOIL ZONE =        1.2764D+07              SOIL ZONE =       -1630755.22
     UNSATURATED ZONE =         409916.52       UNSATURATED ZONE =         -51045.98
       SATURATED ZONE =       -1.4976D+07         SATURATED ZONE =          22588.86
                LAKES =        1.3346D+08                  LAKES =        -148622.72

 OVERALL BUDGET ERROR =        9301039.10           BUDGET ERROR =         151408.81


  PERCENT DISCREPANCY =              1.37    PERCENT DISCREPANCY =              2.54



1
 SUMMARY VOLUMETRIC BUDGET FOR GSFLOW 
 DATE: 05 05 1981              CUMULATIVE TIME STEP:     217
 MODFLOW STRESS PERIOD      1     CURRENT TIME STEP:     217     ITERATIONS:      37

 -----------------------------------------------------------------------------------

   CUMULATIVE VOLUMES               L**3   RATES FOR THIS TIME STEP           L**3/T
   ------------------                      ------------------------

                                     IN                                         IN
                                     --                                         --
        PRECIPITATION =        6.8811D+08          PRECIPITATION =                  
           STREAMFLOW =                               STREAMFLOW =                  
     GW BOUNDARY FLOW =                         GW BOUNDARY FLOW =                  


                                    OUT                                        OUT
                                    ---                                        ---
   EVAPOTRANSPIRATION =        4.1787D+08     EVAPOTRANSPIRATION =        3856518.47
           STREAMFLOW =        6.1794D+07             STREAMFLOW =         173795.95
     GW BOUNDARY FLOW =                         GW BOUNDARY FLOW =                  

   INFLOWS - OUTFLOWS =        2.0844D+08     INFLOWS - OUTFLOWS =       -4030314.42
             --------                                   --------

 TOTAL STORAGE CHANGE =        1.9909D+08         STORAGE CHANGE =       -4026724.90
       --------------                             --------------
         LAND SURFACE =        7.3790D+07           LAND SURFACE =       -3130445.11
            SOIL ZONE =        6300667.05              SOIL ZONE =        -897198.72
     UNSATURATED ZONE =       -1224931.24       UNSATURATED ZONE =        -114815.07
       SATURATED ZONE =       -1.4070D+07         SATURATED ZONE =         -21627.88
                LAKES =        1.3429D+08                  LAKES =         137361.88

 OVERALL BUDGET ERROR =        9351936.40           BUDGET ERROR =          -3589.52


  PERCENT DISCREPANCY =              1.37    PERCENT DISCREPANCY =             -0.09



1
 SUMMARY VOLUMETRIC BUDGET FOR GSFLOW 
 DATE: 05 12 1981              CUMULATIVE TIME STEP:     224
 MODFLOW STRESS PERIOD      1     CURRENT TIME STEP:     224     ITERATIONS:      65

 -----------------------------------------------------------------------------------

   CUMULATIVE VOLUMES               L**3   RATES FOR THIS TIME STEP           L**3/T
   ------------------                      ------------------------

                                     IN                                         IN
                                     --                                         --
        PRECIPITATION =        6.8811D+08          PRECIPITATION =                  
           STREAMFLOW =                               STREAMFLOW =                  
     GW BOUNDARY FLOW =                         GW BOUNDARY FLOW =                  


                                    OUT                                        OUT
                                    ---                                        ---
   EVAPOTRANSPIRATION =        4.4714D+08     EVAPOTRANSPIRATION =        4649698.73
           STREAMFLOW =        6.2990D+07             STREAMFLOW =         168853.17
     GW BOUNDARY FLOW =                         GW BOUNDARY FLOW =                  

   INFLOWS - OUTFLOWS =        1.7798D+08     INFLOWS - OUTFLOWS =       -4818551.90
             --------                                   --------

 TOTAL STORAGE CHANGE =        1.6868D+08         STORAGE CHANGE =       -4818611.67
       --------------                             --------------
         LAND SURFACE =        4.8959D+07           LAND SURFACE =       -3669089.13
            SOIL ZONE =        -183493.01              SOIL ZONE =        -933450.51
     UNSATURATED ZONE =       -3798359.51       UNSATURATED ZONE =        -945350.60
       SATURATED ZONE =       -1.2864D+07         SATURATED ZONE =         528439.25
                LAKES =        1.3657D+08                  LAKES =         200839.33

 OVERALL BUDGET ERROR =        9299088.83           BUDGET ERROR =             59.77


  PERCENT DISCREPANCY =              1.36    PERCENT DISCREPANCY =              0.00



1
 SUMMARY VOLUMETRIC BUDGET FOR GSFLOW 
 DATE: 05 19 1981              CUMULATIVE TIME STEP:     231
 MODFLOW STRESS PERIOD      1     CURRENT TIME STEP:     231     ITERATIONS:      33

 -----------------------------------------------------------------------------------

   CUMULATIVE VOLUMES               L**3   RATES FOR THIS TIME STEP           L**3/T
   ------------------                      ------------------------

                                     IN                                         IN
                                     --                                         --
        PRECIPITATION =        7.4671D+08          PRECIPITATION =        3447112.78
           STREAMFLOW =                               STREAMFLOW =                  
     GW BOUNDARY FLOW =                         GW BOUNDARY FLOW =                  


                                    OUT                                        OUT
                                    ---                                        ---
   EVAPOTRANSPIRATION =        4.6542D+08     EVAPOTRANSPIRATION =        1735652.66
           STREAMFLOW =        6.4181D+07             STREAMFLOW =         172527.11
     GW BOUNDARY FLOW =                         GW BOUNDARY FLOW =                  

   INFLOWS - OUTFLOWS =        2.1711D+08     INFLOWS - OUTFLOWS =        1538933.01
             --------                                   --------

 TOTAL STORAGE CHANGE =        2.0711D+08         STORAGE CHANGE =        1514695.70
       --------------                             --------------
         LAND SURFACE =        5.2395D+07           LAND SURFACE =       -3369164.76
            SOIL ZONE =        1.0822D+07              SOIL ZONE =        1984019.95
     UNSATURATED ZONE =       -4009509.05       UNSATURATED ZONE =          47359.46
       SATURATED ZONE =       -1.2582D+07         SATURATED ZONE =          65571.05
                LAKES =        1.6048D+08                  LAKES =        2786910.00

 OVERALL BUDGET ERROR =        1.0006D+07           BUDGET ERROR =          24237.31


  PERCENT DISCREPANCY =              1.35    PERCENT DISCREPANCY =              0.71



1
 SUMMARY VOLUMETRIC BUDGET FOR GSFLOW 
 DATE: 05 26 1981              CUMULATIVE TIME STEP:     238
 MODFLOW STRESS PERIOD      1     CURRENT TIME STEP:     238     ITERATIONS:      49

 -----------------------------------------------------------------------------------

   CUMULATIVE VOLUMES               L**3   RATES FOR THIS TIME STEP           L**3/T
   ------------------                      ------------------------

                                     IN                                         IN
                                     --                                         --
        PRECIPITATION =        7.7429D+08          PRECIPITATION =        1.7236D+07
           STREAMFLOW =                               STREAMFLOW =                  
     GW BOUNDARY FLOW =                         GW BOUNDARY FLOW =                  


                                    OUT                                        OUT
                                    ---                                        ---
   EVAPOTRANSPIRATION =        4.9661D+08     EVAPOTRANSPIRATION =        2623885.12
           STREAMFLOW =        6.5382D+07             STREAMFLOW =         180466.28
     GW BOUNDARY FLOW =                         GW BOUNDARY FLOW =                  

   INFLOWS - OUTFLOWS =        2.1230D+08     INFLOWS - OUTFLOWS =        1.4431D+07
             --------                                   --------

 TOTAL STORAGE CHANGE =        2.0208D+08         STORAGE CHANGE =        1.4343D+07
       --------------                             --------------
         LAND SURFACE =        3.4113D+07           LAND SURFACE =        -222973.68
            SOIL ZONE =        9410321.35              SOIL ZONE =        4574973.29
     UNSATURATED ZONE =       -3883283.43       UNSATURATED ZONE =          52402.80
       SATURATED ZONE =       -1.1912D+07         SATURATED ZONE =         564805.75
                LAKES =        1.7435D+08                  LAKES =        9374256.00

 OVERALL BUDGET ERROR =        1.0219D+07           BUDGET ERROR =          87748.09


  PERCENT DISCREPANCY =              1.33    PERCENT DISCREPANCY =              0.51



1
 SUMMARY VOLUMETRIC BUDGET FOR GSFLOW 
 DATE: 06 02 1981              CUMULATIVE TIME STEP:     245
 MODFLOW STRESS PERIOD      1     CURRENT TIME STEP:     245     ITERATIONS:      61

 -----------------------------------------------------------------------------------

   CUMULATIVE VOLUMES               L**3   RATES FOR THIS TIME STEP           L**3/T
   ------------------                      ------------------------

                                     IN                                         IN
                                     --                                         --
        PRECIPITATION =        7.7429D+08          PRECIPITATION =                  
           STREAMFLOW =                               STREAMFLOW =                  
     GW BOUNDARY FLOW =                         GW BOUNDARY FLOW =                  


                                    OUT                                        OUT
                                    ---                                        ---
   EVAPOTRANSPIRATION =        5.3764D+08     EVAPOTRANSPIRATION =        5895787.83
           STREAMFLOW =        6.6602D+07             STREAMFLOW =         178725.95
     GW BOUNDARY FLOW =                         GW BOUNDARY FLOW =                  

   INFLOWS - OUTFLOWS =        1.7004D+08     INFLOWS - OUTFLOWS =       -6074513.78
             --------                                   --------

 TOTAL STORAGE CHANGE =        1.5981D+08         STORAGE CHANGE =       -6075207.40
       --------------                             --------------
         LAND SURFACE =        2.0625D+07           LAND SURFACE =       -1585404.98
            SOIL ZONE =       -6675410.47              SOIL ZONE =       -1961898.79
     UNSATURATED ZONE =       -8669450.01       UNSATURATED ZONE =        -224251.77
       SATURATED ZONE =       -1.0389D+07         SATURATED ZONE =        -227159.61
                LAKES =        1.6492D+08                  LAKES =       -2076492.25

 OVERALL BUDGET ERROR =        1.0230D+07           BUDGET ERROR =            693.62


  PERCENT DISCREPANCY =              1.33    PERCENT DISCREPANCY =              0.01



1
 SUMMARY VOLUMETRIC BUDGET FOR GSFLOW 
 DATE: 06 09 1981              CUMULATIVE TIME STEP:     252
 MODFLOW STRESS PERIOD      1     CURRENT TIME STEP:     252     ITERATIONS:      30

 -----------------------------------------------------------------------------------

   CUMULATIVE VOLUMES               L**3   RATES FOR THIS TIME STEP           L**3/T
   ------------------                      ------------------------

                                     IN                                         IN
                                     --                                         --
        PRECIPITATION =        7.7752D+08          PRECIPITATION =                  
           STREAMFLOW =                               STREAMFLOW =                  
     GW BOUNDARY FLOW =                         GW BOUNDARY FLOW =                  


                                    OUT                                        OUT
                                    ---                                        ---
   EVAPOTRANSPIRATION =        5.7529D+08     EVAPOTRANSPIRATION =        5576115.49
           STREAMFLOW =        6.7846D+07             STREAMFLOW =         203133.83
     GW BOUNDARY FLOW =                         GW BOUNDARY FLOW =                  

   INFLOWS - OUTFLOWS =        1.3438D+08     INFLOWS - OUTFLOWS =       -5779249.31
             --------                                   --------

 TOTAL STORAGE CHANGE =        1.2413D+08         STORAGE CHANGE =       -5782427.63
       --------------                             --------------
         LAND SURFACE =        1.0713D+07           LAND SURFACE =       -1034012.14
            SOIL ZONE =       -1.7577D+07              SOIL ZONE =       -1811244.77
     UNSATURATED ZONE =       -1.0293D+07       UNSATURATED ZONE =        -276686.75
       SATURATED ZONE =       -1.1591D+07         SATURATED ZONE =        -233375.97
                LAKES =        1.5288D+08                  LAKES =       -2427108.00

 OVERALL BUDGET ERROR =        1.0252D+07           BUDGET ERROR =           3178.32


  PERCENT DISCREPANCY =              1.33    PERCENT DISCREPANCY =              0.05



1
 SUMMARY VOLUMETRIC BUDGET FOR GSFLOW 
 DATE: 06 16 1981              CUMULATIVE TIME STEP:     259
 MODFLOW STRESS PERIOD      1     CURRENT TIME STEP:     259     ITERATIONS:      35

 -----------------------------------------------------------------------------------

   CUMULATIVE VOLUMES               L**3   RATES FOR THIS TIME STEP           L**3/T
   ------------------                      ------------------------

                                     IN                                         IN
                                     --                                         --
        PRECIPITATION =        7.7752D+08          PRECIPITATION =                  
           STREAMFLOW =                               STREAMFLOW =                  
     GW BOUNDARY FLOW =                         GW BOUNDARY FLOW =                  


                                    OUT                                        OUT
                                    ---                                        ---
   EVAPOTRANSPIRATION =        6.0416D+08     EVAPOTRANSPIRATION =        4902283.57
           STREAMFLOW =        7.0953D+07             STREAMFLOW =         702199.94
     GW BOUNDARY FLOW =                         GW BOUNDARY FLOW =                  

   INFLOWS - OUTFLOWS =        1.0241D+08     INFLOWS - OUTFLOWS =       -5604483.51
             --------                                   --------

 TOTAL STORAGE CHANGE =        9.2156D+07         STORAGE CHANGE =       -5614171.21
[...]
       SATURATED ZONE =       -4.4209D+07         SATURATED ZONE =          53960.77
                LAKES =        7.9282D+08                  LAKES =        2354025.00

 OVERALL BUDGET ERROR =        4.8072D+07           BUDGET ERROR =           8690.69


  PERCENT DISCREPANCY =              1.00    PERCENT DISCREPANCY =              0.11



1
 SUMMARY VOLUMETRIC BUDGET FOR GSFLOW 
 DATE: 07 05 1983              CUMULATIVE TIME STEP:    1008
 MODFLOW STRESS PERIOD      1     CURRENT TIME STEP:    1008     ITERATIONS:      14

 -----------------------------------------------------------------------------------

   CUMULATIVE VOLUMES               L**3   RATES FOR THIS TIME STEP           L**3/T
   ------------------                      ------------------------

                                     IN                                         IN
                                     --                                         --
        PRECIPITATION =        4.8577D+09          PRECIPITATION =                  
           STREAMFLOW =                               STREAMFLOW =                  
     GW BOUNDARY FLOW =                         GW BOUNDARY FLOW =                  


                                    OUT                                        OUT
                                    ---                                        ---
   EVAPOTRANSPIRATION =        2.5232D+09     EVAPOTRANSPIRATION =        6999615.62
           STREAMFLOW =        1.3427D+09             STREAMFLOW =        1965033.63
     GW BOUNDARY FLOW =                         GW BOUNDARY FLOW =                  

   INFLOWS - OUTFLOWS =        9.9183D+08     INFLOWS - OUTFLOWS =       -8964649.25
             --------                                   --------

 TOTAL STORAGE CHANGE =        9.4331D+08         STORAGE CHANGE =       -8924058.88
       --------------                             --------------
         LAND SURFACE =        1.6241D+08           LAND SURFACE =       -8762593.55
            SOIL ZONE =        1.2536D+07              SOIL ZONE =       -1391472.65
     UNSATURATED ZONE =       -3859009.33       UNSATURATED ZONE =        -180146.52
       SATURATED ZONE =       -4.4102D+07         SATURATED ZONE =          16459.20
                LAKES =        8.1633D+08                  LAKES =        1393694.63

 OVERALL BUDGET ERROR =        4.8521D+07           BUDGET ERROR =         -40590.37


  PERCENT DISCREPANCY =              1.00    PERCENT DISCREPANCY =             -0.45



1
 SUMMARY VOLUMETRIC BUDGET FOR GSFLOW 
 DATE: 07 12 1983              CUMULATIVE TIME STEP:    1015
 MODFLOW STRESS PERIOD      1     CURRENT TIME STEP:    1015     ITERATIONS:      24

 -----------------------------------------------------------------------------------

   CUMULATIVE VOLUMES               L**3   RATES FOR THIS TIME STEP           L**3/T
   ------------------                      ------------------------

                                     IN                                         IN
                                     --                                         --
        PRECIPITATION =        4.8577D+09          PRECIPITATION =                  
           STREAMFLOW =                               STREAMFLOW =                  
     GW BOUNDARY FLOW =                         GW BOUNDARY FLOW =                  


                                    OUT                                        OUT
                                    ---                                        ---
   EVAPOTRANSPIRATION =        2.5522D+09     EVAPOTRANSPIRATION =        6206777.00
           STREAMFLOW =        1.3693D+09             STREAMFLOW =        4134799.75
     GW BOUNDARY FLOW =                         GW BOUNDARY FLOW =                  

   INFLOWS - OUTFLOWS =        9.3621D+08     INFLOWS - OUTFLOWS =       -1.0342D+07
             --------                                   --------

 TOTAL STORAGE CHANGE =        8.8763D+08         STORAGE CHANGE =       -1.0334D+07
       --------------                             --------------
         LAND SURFACE =        1.2756D+08           LAND SURFACE =       -7233462.06
            SOIL ZONE =        7031311.06              SOIL ZONE =       -1408220.92
     UNSATURATED ZONE =       -4879314.46       UNSATURATED ZONE =        -152863.95
       SATURATED ZONE =       -4.5352D+07         SATURATED ZONE =          81276.75
                LAKES =        8.0327D+08                  LAKES =       -1620616.88

 OVERALL BUDGET ERROR =        4.8586D+07           BUDGET ERROR =          -7689.70


  PERCENT DISCREPANCY =              1.01    PERCENT DISCREPANCY =             -0.07



1
 SUMMARY VOLUMETRIC BUDGET FOR GSFLOW 
 DATE: 07 19 1983              CUMULATIVE TIME STEP:    1022
 MODFLOW STRESS PERIOD      1     CURRENT TIME STEP:    1022     ITERATIONS:      58

 -----------------------------------------------------------------------------------

   CUMULATIVE VOLUMES               L**3   RATES FOR THIS TIME STEP           L**3/T
   ------------------                      ------------------------

                                     IN                                         IN
                                     --                                         --
        PRECIPITATION =        4.8577D+09          PRECIPITATION =                  
           STREAMFLOW =                               STREAMFLOW =                  
     GW BOUNDARY FLOW =                         GW BOUNDARY FLOW =                  


                                    OUT                                        OUT
                                    ---                                        ---
   EVAPOTRANSPIRATION =        2.5869D+09     EVAPOTRANSPIRATION =        4231221.22
           STREAMFLOW =        1.3971D+09             STREAMFLOW =        2666794.75
     GW BOUNDARY FLOW =                         GW BOUNDARY FLOW =                  

   INFLOWS - OUTFLOWS =        8.7378D+08     INFLOWS - OUTFLOWS =       -6898015.97
             --------                                   --------

 TOTAL STORAGE CHANGE =        8.2552D+08         STORAGE CHANGE =       -6892973.22
       --------------                             --------------
         LAND SURFACE =        9.5291D+07           LAND SURFACE =       -3178036.17
            SOIL ZONE =         852347.28              SOIL ZONE =        -945335.90
     UNSATURATED ZONE =       -6058089.92       UNSATURATED ZONE =        -155132.12
       SATURATED ZONE =       -4.6789D+07         SATURATED ZONE =        -237562.53
                LAKES =        7.8222D+08                  LAKES =       -2376906.50

 OVERALL BUDGET ERROR =        4.8259D+07           BUDGET ERROR =          -5042.74


  PERCENT DISCREPANCY =              1.00    PERCENT DISCREPANCY =             -0.07



1
 SUMMARY VOLUMETRIC BUDGET FOR GSFLOW 
 DATE: 07 26 1983              CUMULATIVE TIME STEP:    1029
 MODFLOW STRESS PERIOD      1     CURRENT TIME STEP:    1029     ITERATIONS:      11

 -----------------------------------------------------------------------------------

   CUMULATIVE VOLUMES               L**3   RATES FOR THIS TIME STEP           L**3/T
   ------------------                      ------------------------

                                     IN                                         IN
                                     --                                         --
        PRECIPITATION =        4.8611D+09          PRECIPITATION =                  
           STREAMFLOW =                               STREAMFLOW =                  
     GW BOUNDARY FLOW =                         GW BOUNDARY FLOW =                  


                                    OUT                                        OUT
                                    ---                                        ---
   EVAPOTRANSPIRATION =        2.6179D+09     EVAPOTRANSPIRATION =        4285144.33
           STREAMFLOW =        1.4092D+09             STREAMFLOW =        1426390.50
     GW BOUNDARY FLOW =                         GW BOUNDARY FLOW =                  

   INFLOWS - OUTFLOWS =        8.3402D+08     INFLOWS - OUTFLOWS =       -5711534.83
             --------                                   --------

 TOTAL STORAGE CHANGE =        7.8563D+08         STORAGE CHANGE =       -5666888.20
       --------------                             --------------
         LAND SURFACE =        6.4950D+07           LAND SURFACE =       -2945091.63
            SOIL ZONE =       -4438275.78              SOIL ZONE =       -1030534.80
     UNSATURATED ZONE =       -7121867.24       UNSATURATED ZONE =        -143156.86
       SATURATED ZONE =       -4.7512D+07         SATURATED ZONE =        -304134.28
                LAKES =        7.7975D+08                  LAKES =       -1243970.63

 OVERALL BUDGET ERROR =        4.8387D+07           BUDGET ERROR =         -44646.64


  PERCENT DISCREPANCY =              1.00    PERCENT DISCREPANCY =             -0.78



1
 SUMMARY VOLUMETRIC BUDGET FOR GSFLOW 
 DATE: 08 02 1983              CUMULATIVE TIME STEP:    1036
 MODFLOW STRESS PERIOD      1     CURRENT TIME STEP:    1036     ITERATIONS:      23

 -----------------------------------------------------------------------------------

   CUMULATIVE VOLUMES               L**3   RATES FOR THIS TIME STEP           L**3/T
   ------------------                      ------------------------

                                     IN                                         IN
                                     --                                         --
        PRECIPITATION =        4.8611D+09          PRECIPITATION =                  
           STREAMFLOW =                               STREAMFLOW =                  
     GW BOUNDARY FLOW =                         GW BOUNDARY FLOW =                  


                                    OUT                                        OUT
                                    ---                                        ---
   EVAPOTRANSPIRATION =        2.6569D+09     EVAPOTRANSPIRATION =        5465200.19
           STREAMFLOW =        1.4191D+09             STREAMFLOW =        1416587.00
     GW BOUNDARY FLOW =                         GW BOUNDARY FLOW =                  

   INFLOWS - OUTFLOWS =        7.8509D+08     INFLOWS - OUTFLOWS =       -6881787.19
             --------                                   --------

 TOTAL STORAGE CHANGE =        7.3669D+08         STORAGE CHANGE =       -6877676.26
       --------------                             --------------
         LAND SURFACE =        4.0851D+07           LAND SURFACE =       -3005677.36
            SOIL ZONE =       -1.3598D+07              SOIL ZONE =       -1214068.44
     UNSATURATED ZONE =       -8368014.68       UNSATURATED ZONE =        -179333.70
       SATURATED ZONE =       -4.9102D+07         SATURATED ZONE =        -257313.50
                LAKES =        7.6691D+08                  LAKES =       -2221283.25

 OVERALL BUDGET ERROR =        4.8396D+07           BUDGET ERROR =          -4110.93


  PERCENT DISCREPANCY =              1.00    PERCENT DISCREPANCY =             -0.06



1
 SUMMARY VOLUMETRIC BUDGET FOR GSFLOW 
 DATE: 08 09 1983              CUMULATIVE TIME STEP:    1043
 MODFLOW STRESS PERIOD      1     CURRENT TIME STEP:    1043     ITERATIONS:      14

 -----------------------------------------------------------------------------------

   CUMULATIVE VOLUMES               L**3   RATES FOR THIS TIME STEP           L**3/T
   ------------------                      ------------------------

                                     IN                                         IN
                                     --                                         --
        PRECIPITATION =        4.8681D+09          PRECIPITATION =                  
           STREAMFLOW =                               STREAMFLOW =                  
     GW BOUNDARY FLOW =                         GW BOUNDARY FLOW =                  


                                    OUT                                        OUT
                                    ---                                        ---
   EVAPOTRANSPIRATION =        2.6909D+09     EVAPOTRANSPIRATION =        4859211.67
           STREAMFLOW =        1.4290D+09             STREAMFLOW =        1416626.75
     GW BOUNDARY FLOW =                         GW BOUNDARY FLOW =                  

   INFLOWS - OUTFLOWS =        7.4815D+08     INFLOWS - OUTFLOWS =       -6275838.42
             --------                                   --------

 TOTAL STORAGE CHANGE =        6.9974D+08         STORAGE CHANGE =       -6263327.81
       --------------                             --------------
         LAND SURFACE =        2.2553D+07           LAND SURFACE =       -1656564.75
            SOIL ZONE =       -1.8574D+07              SOIL ZONE =       -1444688.01
     UNSATURATED ZONE =       -9431703.38       UNSATURATED ZONE =        -157988.76
       SATURATED ZONE =       -5.0546D+07         SATURATED ZONE =        -383096.53
                LAKES =        7.5574D+08                  LAKES =       -2620989.75

 OVERALL BUDGET ERROR =        4.8415D+07           BUDGET ERROR =         -12510.61


  PERCENT DISCREPANCY =              1.00    PERCENT DISCREPANCY =             -0.20



1
 SUMMARY VOLUMETRIC BUDGET FOR GSFLOW 
 DATE: 08 16 1983              CUMULATIVE TIME STEP:    1050
 MODFLOW STRESS PERIOD      1     CURRENT TIME STEP:    1050     ITERATIONS:      10

 -----------------------------------------------------------------------------------

   CUMULATIVE VOLUMES               L**3   RATES FOR THIS TIME STEP           L**3/T
   ------------------                      ------------------------

                                     IN                                         IN
                                     --                                         --
        PRECIPITATION =        4.8821D+09          PRECIPITATION =        3491652.99
           STREAMFLOW =                               STREAMFLOW =                  
     GW BOUNDARY FLOW =                         GW BOUNDARY FLOW =                  


                                    OUT                                        OUT
                                    ---                                        ---
   EVAPOTRANSPIRATION =        2.7172D+09     EVAPOTRANSPIRATION =        2591715.88
           STREAMFLOW =        1.4390D+09             STREAMFLOW =        1434053.50
     GW BOUNDARY FLOW =                         GW BOUNDARY FLOW =                  

   INFLOWS - OUTFLOWS =        7.2582D+08     INFLOWS - OUTFLOWS =        -534116.40
             --------                                   --------

 TOTAL STORAGE CHANGE =        6.7684D+08         STORAGE CHANGE =        -644117.45
       --------------                             --------------
         LAND SURFACE =        1.2752D+07           LAND SURFACE =       -1544231.04
            SOIL ZONE =       -1.9259D+07              SOIL ZONE =         549371.08
     UNSATURATED ZONE =       -1.0309D+07       UNSATURATED ZONE =         -50173.16
       SATURATED ZONE =       -5.2067D+07         SATURATED ZONE =          -2654.02
                LAKES =        7.4572D+08                  LAKES =         403569.69

 OVERALL BUDGET ERROR =        4.8981D+07           BUDGET ERROR =         110001.05


  PERCENT DISCREPANCY =              1.01    PERCENT DISCREPANCY =              2.70



1
 SUMMARY VOLUMETRIC BUDGET FOR GSFLOW 
 DATE: 08 23 1983              CUMULATIVE TIME STEP:    1057
 MODFLOW STRESS PERIOD      1     CURRENT TIME STEP:    1057     ITERATIONS:      29

 -----------------------------------------------------------------------------------

   CUMULATIVE VOLUMES               L**3   RATES FOR THIS TIME STEP           L**3/T
   ------------------                      ------------------------

                                     IN                                         IN
                                     --                                         --
        PRECIPITATION =        4.8891D+09          PRECIPITATION =                  
           STREAMFLOW =                               STREAMFLOW =                  
     GW BOUNDARY FLOW =                         GW BOUNDARY FLOW =                  


                                    OUT                                        OUT
                                    ---                                        ---
   EVAPOTRANSPIRATION =        2.7403D+09     EVAPOTRANSPIRATION =        2532876.44
           STREAMFLOW =        1.4490D+09             STREAMFLOW =        1419120.25
     GW BOUNDARY FLOW =                         GW BOUNDARY FLOW =                  

   INFLOWS - OUTFLOWS =        6.9972D+08     INFLOWS - OUTFLOWS =       -3951996.69
             --------                                   --------

 TOTAL STORAGE CHANGE =        6.5035D+08         STORAGE CHANGE =       -3945466.01
       --------------                             --------------
         LAND SURFACE =        8878910.07           LAND SURFACE =        -288586.00
            SOIL ZONE =       -2.4131D+07              SOIL ZONE =        -920213.55
     UNSATURATED ZONE =       -1.1075D+07       UNSATURATED ZONE =        -172348.09
       SATURATED ZONE =       -5.4044D+07         SATURATED ZONE =        -233977.38
                LAKES =        7.3073D+08                  LAKES =       -2330341.00

 OVERALL BUDGET ERROR =        4.9361D+07           BUDGET ERROR =          -6530.68


  PERCENT DISCREPANCY =              1.01    PERCENT DISCREPANCY =             -0.17



1
 SUMMARY VOLUMETRIC BUDGET FOR GSFLOW 
 DATE: 08 30 1983              CUMULATIVE TIME STEP:    1064
 MODFLOW STRESS PERIOD      1     CURRENT TIME STEP:    1064     ITERATIONS:      14

 -----------------------------------------------------------------------------------

   CUMULATIVE VOLUMES               L**3   RATES FOR THIS TIME STEP           L**3/T
   ------------------                      ------------------------

                                     IN                                         IN
                                     --                                         --
        PRECIPITATION =        4.8995D+09          PRECIPITATION =                  
           STREAMFLOW =                               STREAMFLOW =                  
     GW BOUNDARY FLOW =                         GW BOUNDARY FLOW =                  


                                    OUT                                        OUT
                                    ---                                        ---
   EVAPOTRANSPIRATION =        2.7625D+09     EVAPOTRANSPIRATION =        4427900.14
           STREAMFLOW =        1.4584D+09             STREAMFLOW =        1360436.88
     GW BOUNDARY FLOW =                         GW BOUNDARY FLOW =                  

   INFLOWS - OUTFLOWS =        6.7857D+08     INFLOWS - OUTFLOWS =       -5788337.02
             --------                                   --------

 TOTAL STORAGE CHANGE =        6.2879D+08         STORAGE CHANGE =       -5739216.06
       --------------                             --------------
         LAND SURFACE =        5787282.75           LAND SURFACE =        -656017.58
            SOIL ZONE =       -2.6756D+07              SOIL ZONE =       -1914542.83
     UNSATURATED ZONE =       -1.1802D+07       UNSATURATED ZONE =         -65981.93
       SATURATED ZONE =       -5.5467D+07         SATURATED ZONE =        -165537.22
                LAKES =        7.1702D+08                  LAKES =       -2937136.50

 OVERALL BUDGET ERROR =        4.9785D+07           BUDGET ERROR =         -49120.96


  PERCENT DISCREPANCY =              1.02    PERCENT DISCREPANCY =             -0.85



