1
 SUMMARY VOLUMETRIC BUDGET FOR GSFLOW 
 DATE: 10 07 1980              CUMULATIVE TIME STEP:       7
 MODFLOW STRESS PERIOD      1     CURRENT TIME STEP:       7     ITERATIONS:      12

 -----------------------------------------------------------------------------------

   CUMULATIVE VOLUMES               L**3   RATES FOR THIS TIME STEP           L**3/T
   ------------------                      ------------------------

                                     IN                                         IN
                                     --                                         --
        PRECIPITATION =                            PRECIPITATION =                  
           STREAMFLOW =                               STREAMFLOW =                  
     GW BOUNDARY FLOW =                         GW BOUNDARY FLOW =                  


                                    OUT                                        OUT
                                    ---                                        ---
   EVAPOTRANSPIRATION =        1.5448D+07     EVAPOTRANSPIRATION =        1422148.20
           STREAMFLOW =        1672059.45             STREAMFLOW =         183556.67
     GW BOUNDARY FLOW =                         GW BOUNDARY FLOW =                  

   INFLOWS - OUTFLOWS =       -1.7120D+07     INFLOWS - OUTFLOWS =       -1605704.87
             --------                                   --------

 TOTAL STORAGE CHANGE =       -1.7098D+07         STORAGE CHANGE =       -1603012.53
       --------------                             --------------
         LAND SURFACE =                             LAND SURFACE =                  
            SOIL ZONE =       -5383474.87              SOIL ZONE =        -221232.04
     UNSATURATED ZONE =       -1429527.53       UNSATURATED ZONE =         -62733.61
       SATURATED ZONE =       -1314802.34         SATURATED ZONE =        -268583.00
                LAKES =       -8970216.00                  LAKES =       -1050463.88

 OVERALL BUDGET ERROR =         -21906.33           BUDGET ERROR =          -2692.35


  PERCENT DISCREPANCY =             -0.13    PERCENT DISCREPANCY =             -0.17



1
 SUMMARY VOLUMETRIC BUDGET FOR GSFLOW 
 DATE: 10 14 1980              CUMULATIVE TIME STEP:      14
 MODFLOW STRESS PERIOD      1     CURRENT TIME STEP:      14     ITERATIONS:       3

 -----------------------------------------------------------------------------------

   CUMULATIVE VOLUMES               L**3   RATES FOR THIS TIME STEP           L**3/T
   ------------------                      ------------------------

                                     IN                                         IN
                                     --                                         --
        PRECIPITATION =        1.3442D+07          PRECIPITATION =        6721104.51
           STREAMFLOW =                               STREAMFLOW =                  
     GW BOUNDARY FLOW =                         GW BOUNDARY FLOW =                  


                                    OUT                                        OUT
                                    ---                                        ---
   EVAPOTRANSPIRATION =        2.2948D+07     EVAPOTRANSPIRATION =         498985.73
           STREAMFLOW =        2279257.93             STREAMFLOW =          34825.47
     GW BOUNDARY FLOW =                         GW BOUNDARY FLOW =                  

   INFLOWS - OUTFLOWS =       -1.1786D+07     INFLOWS - OUTFLOWS =        6187293.30
             --------                                   --------

 TOTAL STORAGE CHANGE =       -1.1895D+07         STORAGE CHANGE =        6113760.17
       --------------                             --------------
         LAND SURFACE =        2552191.86           LAND SURFACE =        1584944.65
            SOIL ZONE =         412694.00              SOIL ZONE =        2951379.96
     UNSATURATED ZONE =       -1864707.45       UNSATURATED ZONE =         -57186.45
       SATURATED ZONE =       -2747808.55         SATURATED ZONE =        -121505.36
                LAKES =       -1.0247D+07                  LAKES =        1756127.38

 OVERALL BUDGET ERROR =         109481.79           BUDGET ERROR =          73533.13


  PERCENT DISCREPANCY =              0.43    PERCENT DISCREPANCY =              1.10



1
 SUMMARY VOLUMETRIC BUDGET FOR GSFLOW 
 DATE: 10 21 1980              CUMULATIVE TIME STEP:      21
 MODFLOW STRESS PERIOD      1     CURRENT TIME STEP:      21     ITERATIONS:       5

 -----------------------------------------------------------------------------------

   CUMULATIVE VOLUMES               L**3   RATES FOR THIS TIME STEP           L**3/T
   ------------------                      ------------------------

                                     IN                                         IN
                                     --                                         --
        PRECIPITATION =        1.6803D+07          PRECIPITATION =                  
           STREAMFLOW =                               STREAMFLOW =                  
     GW BOUNDARY FLOW =                         GW BOUNDARY FLOW =                  


                                    OUT                                        OUT
                                    ---                                        ---
   EVAPOTRANSPIRATION =        2.9667D+07     EVAPOTRANSPIRATION =        1424310.30
           STREAMFLOW =        3039640.24             STREAMFLOW =         364363.34
     GW BOUNDARY FLOW =                         GW BOUNDARY FLOW =                  

   INFLOWS - OUTFLOWS =       -1.5904D+07     INFLOWS - OUTFLOWS =       -1788673.64
             --------                                   --------

 TOTAL STORAGE CHANGE =       -1.6034D+07         STORAGE CHANGE =       -1791174.56
       --------------                             --------------
         LAND SURFACE =         588318.92           LAND SURFACE =        -190785.60
            SOIL ZONE =         312457.49              SOIL ZONE =        -615966.10
     UNSATURATED ZONE =       -2309379.44       UNSATURATED ZONE =         -63108.53
       SATURATED ZONE =       -3777979.92         SATURATED ZONE =        -149519.52
                LAKES =       -1.0847D+07                  LAKES =        -771794.81

 OVERALL BUDGET ERROR =         129643.63           BUDGET ERROR =           2500.92


  PERCENT DISCREPANCY =              0.40    PERCENT DISCREPANCY =              0.14



1
 SUMMARY VOLUMETRIC BUDGET FOR GSFLOW 
 DATE: 10 28 1980              CUMULATIVE TIME STEP:      28
 MODFLOW STRESS PERIOD      1     CURRENT TIME STEP:      28     ITERATIONS:       4

 -----------------------------------------------------------------------------------

   CUMULATIVE VOLUMES               L**3   RATES FOR THIS TIME STEP           L**3/T
   ------------------                      ------------------------

                                     IN                                         IN
                                     --                                         --
        PRECIPITATION =        4.0327D+07          PRECIPITATION =                  
           STREAMFLOW =                               STREAMFLOW =                  
     GW BOUNDARY FLOW =                         GW BOUNDARY FLOW =                  


                                    OUT                                        OUT
                                    ---                                        ---
   EVAPOTRANSPIRATION =        3.6490D+07     EVAPOTRANSPIRATION =         402572.27
           STREAMFLOW =        5483093.68             STREAMFLOW =         342843.84
     GW BOUNDARY FLOW =                         GW BOUNDARY FLOW =                  

   INFLOWS - OUTFLOWS =       -1646842.70     INFLOWS - OUTFLOWS =        -745416.11
             --------                                   --------

 TOTAL STORAGE CHANGE =       -2138819.67         STORAGE CHANGE =        -651545.23
       --------------                             --------------
         LAND SURFACE =        4876331.17           LAND SURFACE =        -161718.54
            SOIL ZONE =        7720232.68              SOIL ZONE =        -222454.19
     UNSATURATED ZONE =       -2598351.43       UNSATURATED ZONE =         -29062.38
       SATURATED ZONE =       -4490040.36         SATURATED ZONE =        -123659.95
                LAKES =       -7646991.73                  LAKES =        -114650.17

 OVERALL BUDGET ERROR =         491976.97           BUDGET ERROR =         -93870.88

  ***CAUTION, FLUX RATES OFF > 10%

  PERCENT DISCREPANCY =              1.17    PERCENT DISCREPANCY =            -13.44



1
 SUMMARY VOLUMETRIC BUDGET FOR GSFLOW 
 DATE: 11 04 1980              CUMULATIVE TIME STEP:      35
 MODFLOW STRESS PERIOD      1     CURRENT TIME STEP:      35     ITERATIONS:      11

 -----------------------------------------------------------------------------------

   CUMULATIVE VOLUMES               L**3   RATES FOR THIS TIME STEP           L**3/T
   ------------------                      ------------------------

                                     IN                                         IN
                                     --                                         --
        PRECIPITATION =        5.0408D+07          PRECIPITATION =                  
           STREAMFLOW =                               STREAMFLOW =                  
     GW BOUNDARY FLOW =                         GW BOUNDARY FLOW =                  


                                    OUT                                        OUT
                                    ---                                        ---
   EVAPOTRANSPIRATION =        5.1117D+07     EVAPOTRANSPIRATION =        2771782.41
           STREAMFLOW =        7931988.93             STREAMFLOW =         350029.88
     GW BOUNDARY FLOW =                         GW BOUNDARY FLOW =                  

   INFLOWS - OUTFLOWS =       -8641012.55     INFLOWS - OUTFLOWS =       -3121812.28
             --------                                   --------

 TOTAL STORAGE CHANGE =       -9568358.96         STORAGE CHANGE =       -3133692.80
       --------------                             --------------
         LAND SURFACE =         255140.47           LAND SURFACE =         -53454.97
            SOIL ZONE =        4504798.84              SOIL ZONE =       -1765733.52
     UNSATURATED ZONE =       -2529996.45       UNSATURATED ZONE =         -44832.60
       SATURATED ZONE =       -5051391.66         SATURATED ZONE =        -248392.09
                LAKES =       -6746910.17                  LAKES =       -1021279.62

 OVERALL BUDGET ERROR =         927346.41           BUDGET ERROR =          11880.52


  PERCENT DISCREPANCY =              1.56    PERCENT DISCREPANCY =              0.38



1
 SUMMARY VOLUMETRIC BUDGET FOR GSFLOW 
 DATE: 11 11 1980              CUMULATIVE TIME STEP:      42
 MODFLOW STRESS PERIOD      1     CURRENT TIME STEP:      42     ITERATIONS:       5

 -----------------------------------------------------------------------------------

   CUMULATIVE VOLUMES               L**3   RATES FOR THIS TIME STEP           L**3/T
   ------------------                      ------------------------

                                     IN                                         IN
                                     --                                         --
        PRECIPITATION =        7.9485D+07          PRECIPITATION =        3230734.65
           STREAMFLOW =                               STREAMFLOW =                  
     GW BOUNDARY FLOW =                         GW BOUNDARY FLOW =                  


                                    OUT                                        OUT
                                    ---                                        ---
   EVAPOTRANSPIRATION =        6.8572D+07     EVAPOTRANSPIRATION =        1673736.84
           STREAMFLOW =        9809618.45             STREAMFLOW =         250092.36
     GW BOUNDARY FLOW =                         GW BOUNDARY FLOW =                  

   INFLOWS - OUTFLOWS =        1103753.91     INFLOWS - OUTFLOWS =        1306905.46
             --------                                   --------

 TOTAL STORAGE CHANGE =        -212845.12         STORAGE CHANGE =        1182221.33
       --------------                             --------------
         LAND SURFACE =        3625099.24           LAND SURFACE =         -64050.51
            SOIL ZONE =        9193850.29              SOIL ZONE =         665272.26
     UNSATURATED ZONE =       -2565368.69       UNSATURATED ZONE =          39273.93
       SATURATED ZONE =       -5923130.17         SATURATED ZONE =         -40987.28
                LAKES =       -4543295.80                  LAKES =         582712.94

 OVERALL BUDGET ERROR =        1316599.04           BUDGET ERROR =         124684.13

  ***WARNING, FLUX RATES OFF > 3%

  PERCENT DISCREPANCY =              1.67    PERCENT DISCREPANCY =              3.94



1
 SUMMARY VOLUMETRIC BUDGET FOR GSFLOW 
 DATE: 11 18 1980              CUMULATIVE TIME STEP:      49
 MODFLOW STRESS PERIOD      1     CURRENT TIME STEP:      49     ITERATIONS:       3

 -----------------------------------------------------------------------------------

   CUMULATIVE VOLUMES               L**3   RATES FOR THIS TIME STEP           L**3/T
   ------------------                      ------------------------

                                     IN                                         IN
                                     --                                         --
        PRECIPITATION =        8.5946D+07          PRECIPITATION =                  
           STREAMFLOW =                               STREAMFLOW =                  
     GW BOUNDARY FLOW =                         GW BOUNDARY FLOW =                  


                                    OUT                                        OUT
                                    ---                                        ---
   EVAPOTRANSPIRATION =        7.4638D+07     EVAPOTRANSPIRATION =        1451124.04
           STREAMFLOW =        1.1638D+07             STREAMFLOW =         312770.75
     GW BOUNDARY FLOW =                         GW BOUNDARY FLOW =                  

   INFLOWS - OUTFLOWS =        -329633.44     INFLOWS - OUTFLOWS =       -1763894.79
             --------                                   --------

 TOTAL STORAGE CHANGE =       -1543542.56         STORAGE CHANGE =       -1752876.16
       --------------                             --------------
         LAND SURFACE =        4250611.56           LAND SURFACE =        -429009.19
            SOIL ZONE =        8671307.19              SOIL ZONE =        -608245.37
     UNSATURATED ZONE =       -2503360.52       UNSATURATED ZONE =          13831.43
       SATURATED ZONE =       -7164881.31         SATURATED ZONE =        -173630.09
                LAKES =       -4797219.48                  LAKES =        -555822.94

 OVERALL BUDGET ERROR =        1213909.13           BUDGET ERROR =         -11018.63


  PERCENT DISCREPANCY =              1.40    PERCENT DISCREPANCY =             -0.63



1
 SUMMARY VOLUMETRIC BUDGET FOR GSFLOW 
 DATE: 11 25 1980              CUMULATIVE TIME STEP:      56
 MODFLOW STRESS PERIOD      1     CURRENT TIME STEP:      56     ITERATIONS:       3

 -----------------------------------------------------------------------------------

   CUMULATIVE VOLUMES               L**3   RATES FOR THIS TIME STEP           L**3/T
   ------------------                      ------------------------

                                     IN                                         IN
                                     --                                         --
        PRECIPITATION =        8.9177D+07          PRECIPITATION =                  
           STREAMFLOW =                               STREAMFLOW =                  
     GW BOUNDARY FLOW =                         GW BOUNDARY FLOW =                  


                                    OUT                                        OUT
                                    ---                                        ---
   EVAPOTRANSPIRATION =        8.1241D+07     EVAPOTRANSPIRATION =         261667.98
           STREAMFLOW =        1.4055D+07             STREAMFLOW =         437097.75
     GW BOUNDARY FLOW =                         GW BOUNDARY FLOW =                  

   INFLOWS - OUTFLOWS =       -6118581.92     INFLOWS - OUTFLOWS =        -698765.73
             --------                                   --------

 TOTAL STORAGE CHANGE =       -7439718.20         STORAGE CHANGE =        -713335.91
       --------------                             --------------
         LAND SURFACE =        4132228.82           LAND SURFACE =         -26960.17
            SOIL ZONE =        6828893.52              SOIL ZONE =        -174824.30
     UNSATURATED ZONE =       -2514863.42       UNSATURATED ZONE =         -14712.59
       SATURATED ZONE =       -8403119.69         SATURATED ZONE =        -182657.97
                LAKES =       -7482857.42                  LAKES =        -314180.88

 OVERALL BUDGET ERROR =        1321136.28           BUDGET ERROR =          14570.17


  PERCENT DISCREPANCY =              1.38    PERCENT DISCREPANCY =              2.06



1
 SUMMARY VOLUMETRIC BUDGET FOR GSFLOW 
 DATE: 12 02 1980              CUMULATIVE TIME STEP:      63
 MODFLOW STRESS PERIOD      1     CURRENT TIME STEP:      63     ITERATIONS:       4

 -----------------------------------------------------------------------------------

   CUMULATIVE VOLUMES               L**3   RATES FOR THIS TIME STEP           L**3/T
   ------------------                      ------------------------

                                     IN                                         IN
                                     --                                         --
        PRECIPITATION =        1.0846D+08          PRECIPITATION =        3198161.89
           STREAMFLOW =                               STREAMFLOW =                  
     GW BOUNDARY FLOW =                         GW BOUNDARY FLOW =                  


                                    OUT                                        OUT
                                    ---                                        ---
   EVAPOTRANSPIRATION =        8.8617D+07     EVAPOTRANSPIRATION =        1264982.84
           STREAMFLOW =        1.7318D+07             STREAMFLOW =         437213.25
     GW BOUNDARY FLOW =                         GW BOUNDARY FLOW =                  

   INFLOWS - OUTFLOWS =        2529315.41     INFLOWS - OUTFLOWS =        1495965.81
             --------                                   --------

 TOTAL STORAGE CHANGE =         726091.57         STORAGE CHANGE =        1343145.08
       --------------                             --------------
         LAND SURFACE =        7156742.43           LAND SURFACE =        -909589.19
            SOIL ZONE =        1.0582D+07              SOIL ZONE =        1684367.86
     UNSATURATED ZONE =       -2377873.24       UNSATURATED ZONE =          47330.62
       SATURATED ZONE =       -9134444.74         SATURATED ZONE =         -50907.83
                LAKES =       -5500411.73                  LAKES =         571943.62

 OVERALL BUDGET ERROR =        1803223.84           BUDGET ERROR =         152820.72

  ***WARNING, FLUX RATES OFF > 3%

  PERCENT DISCREPANCY =              1.68    PERCENT DISCREPANCY =              4.90



1
 SUMMARY VOLUMETRIC BUDGET FOR GSFLOW 
 DATE: 12 09 1980              CUMULATIVE TIME STEP:      70
 MODFLOW STRESS PERIOD      1     CURRENT TIME STEP:      70     ITERATIONS:      18

 -----------------------------------------------------------------------------------

   CUMULATIVE VOLUMES               L**3   RATES FOR THIS TIME STEP           L**3/T
   ------------------                      ------------------------

                                     IN                                         IN
                                     --                                         --
        PRECIPITATION =        1.7882D+08          PRECIPITATION =                  
           STREAMFLOW =                               STREAMFLOW =                  
     GW BOUNDARY FLOW =                         GW BOUNDARY FLOW =                  


                                    OUT                                        OUT
                                    ---                                        ---
   EVAPOTRANSPIRATION =        9.0880D+07     EVAPOTRANSPIRATION =         375105.11
           STREAMFLOW =        2.0282D+07             STREAMFLOW =         420980.47
     GW BOUNDARY FLOW =                         GW BOUNDARY FLOW =                  

   INFLOWS - OUTFLOWS =        6.7661D+07     INFLOWS - OUTFLOWS =        -796085.57
             --------                                   --------

 TOTAL STORAGE CHANGE =        6.5680D+07         STORAGE CHANGE =        -822354.19
       --------------                             --------------
         LAND SURFACE =        5.1475D+07           LAND SURFACE =        -232729.71
            SOIL ZONE =        1.3513D+07              SOIL ZONE =        -140209.89
     UNSATURATED ZONE =       -1979961.36       UNSATURATED ZONE =          25756.99
       SATURATED ZONE =       -1.0074D+07         SATURATED ZONE =        -205759.48
                LAKES =        1.2746D+07                  LAKES =        -269412.09

 OVERALL BUDGET ERROR =        1980769.97           BUDGET ERROR =          26268.61

  ***WARNING, FLUX RATES OFF > 3%

  PERCENT DISCREPANCY =              1.11    PERCENT DISCREPANCY =              3.25



1
 SUMMARY VOLUMETRIC BUDGET FOR GSFLOW 
 DATE: 12 16 1980              CUMULATIVE TIME STEP:      77
 MODFLOW STRESS PERIOD      1     CURRENT TIME STEP:      77     ITERATIONS:       4

 -----------------------------------------------------------------------------------

   CUMULATIVE VOLUMES               L**3   RATES FOR THIS TIME STEP           L**3/T
   ------------------                      ------------------------

                                     IN                                         IN
                                     --                                         --
        PRECIPITATION =        1.7882D+08          PRECIPITATION =                  
           STREAMFLOW =                               STREAMFLOW =                  
     GW BOUNDARY FLOW =                         GW BOUNDARY FLOW =                  


                                    OUT                                        OUT
                                    ---                                        ---
   EVAPOTRANSPIRATION =        9.7266D+07     EVAPOTRANSPIRATION =        1435654.41
           STREAMFLOW =        2.3263D+07             STREAMFLOW =         430688.03
     GW BOUNDARY FLOW =                         GW BOUNDARY FLOW =                  

   INFLOWS - OUTFLOWS =        5.8295D+07     INFLOWS - OUTFLOWS =       -1866342.44
             --------                                   --------

 TOTAL STORAGE CHANGE =        5.6148D+07         STORAGE CHANGE =       -1884948.99
       --------------                             --------------
         LAND SURFACE =        4.7274D+07           LAND SURFACE =       -1168995.97
            SOIL ZONE =        1.3161D+07              SOIL ZONE =         202434.23
     UNSATURATED ZONE =       -1944269.14       UNSATURATED ZONE =          -9996.43
       SATURATED ZONE =       -1.1414D+07         SATURATED ZONE =        -166721.58
                LAKES =        9070845.44                  LAKES =        -741669.25

 OVERALL BUDGET ERROR =        2147227.12           BUDGET ERROR =          18606.55


  PERCENT DISCREPANCY =              1.21    PERCENT DISCREPANCY =              0.99



1
 SUMMARY VOLUMETRIC BUDGET FOR GSFLOW 
 DATE: 12 23 1980              CUMULATIVE TIME STEP:      84
 MODFLOW STRESS PERIOD      1     CURRENT TIME STEP:      84     ITERATIONS:       3

 -----------------------------------------------------------------------------------

   CUMULATIVE VOLUMES               L**3   RATES FOR THIS TIME STEP           L**3/T
   ------------------                      ------------------------

                                     IN                                         IN
                                     --                                         --
        PRECIPITATION =        1.8522D+08          PRECIPITATION =        3198161.89
           STREAMFLOW =                               STREAMFLOW =                  
     GW BOUNDARY FLOW =                         GW BOUNDARY FLOW =                  


                                    OUT                                        OUT
                                    ---                                        ---
   EVAPOTRANSPIRATION =        1.0539D+08     EVAPOTRANSPIRATION =        1086465.40
           STREAMFLOW =        2.6315D+07             STREAMFLOW =         443557.16
     GW BOUNDARY FLOW =                         GW BOUNDARY FLOW =                  

   INFLOWS - OUTFLOWS =        5.3514D+07     INFLOWS - OUTFLOWS =        1668139.33
             --------                                   --------

 TOTAL STORAGE CHANGE =        5.1082D+07         STORAGE CHANGE =        1550971.24
       --------------                             --------------
         LAND SURFACE =        4.2225D+07           LAND SURFACE =        -269560.96
            SOIL ZONE =        1.6159D+07              SOIL ZONE =        1308202.67
     UNSATURATED ZONE =       -1835898.21       UNSATURATED ZONE =          77430.83
       SATURATED ZONE =       -1.2330D+07         SATURATED ZONE =         -81438.58
                LAKES =        6864041.31                  LAKES =         516337.28

 OVERALL BUDGET ERROR =        2432010.63           BUDGET ERROR =         117168.10

  ***WARNING, FLUX RATES OFF > 3%

  PERCENT DISCREPANCY =              1.32    PERCENT DISCREPANCY =              3.73



1
 SUMMARY VOLUMETRIC BUDGET FOR GSFLOW 
 DATE: 12 30 1980              CUMULATIVE TIME STEP:      91
 MODFLOW STRESS PERIOD      1     CURRENT TIME STEP:      91     ITERATIONS:       4

 -----------------------------------------------------------------------------------

   CUMULATIVE VOLUMES               L**3   RATES FOR THIS TIME STEP           L**3/T
   ------------------                      ------------------------

                                     IN                                         IN
                                     --                                         --
        PRECIPITATION =        1.8522D+08          PRECIPITATION =                  
           STREAMFLOW =                               STREAMFLOW =                  
     GW BOUNDARY FLOW =                         GW BOUNDARY FLOW =                  


                                    OUT                                        OUT
                                    ---                                        ---
   EVAPOTRANSPIRATION =        1.1517D+08     EVAPOTRANSPIRATION =        1178852.20
           STREAMFLOW =        2.9399D+07             STREAMFLOW =         445276.34
     GW BOUNDARY FLOW =                         GW BOUNDARY FLOW =                  

   INFLOWS - OUTFLOWS =        4.0649D+07     INFLOWS - OUTFLOWS =       -1624128.55
             --------                                   --------

 TOTAL STORAGE CHANGE =        3.8025D+07         STORAGE CHANGE =       -1653209.01
       --------------                             --------------
         LAND SURFACE =        3.6091D+07           LAND SURFACE =        -561274.10
            SOIL ZONE =        1.4738D+07              SOIL ZONE =        -324989.20
     UNSATURATED ZONE =       -1722567.28       UNSATURATED ZONE =           8385.14
       SATURATED ZONE =       -1.3394D+07         SATURATED ZONE =        -164236.84
                LAKES =        2313043.37                  LAKES =        -611094.00

 OVERALL BUDGET ERROR =        2624169.13           BUDGET ERROR =          29080.46


  PERCENT DISCREPANCY =              1.43    PERCENT DISCREPANCY =              1.77



1
 SUMMARY VOLUMETRIC BUDGET FOR GSFLOW 
 DATE: 01 06 1981              CUMULATIVE TIME STEP:      98
 MODFLOW STRESS PERIOD      1     CURRENT TIME STEP:      98     ITERATIONS:       9

 -----------------------------------------------------------------------------------

   CUMULATIVE VOLUMES               L**3   RATES FOR THIS TIME STEP           L**3/T
   ------------------                      ------------------------

                                     IN                                         IN
                                     --                                         --
        PRECIPITATION =        2.0923D+08          PRECIPITATION =                  
           STREAMFLOW =                               STREAMFLOW =                  
     GW BOUNDARY FLOW =                         GW BOUNDARY FLOW =                  


                                    OUT                                        OUT
                                    ---                                        ---
   EVAPOTRANSPIRATION =        1.2250D+08     EVAPOTRANSPIRATION =        1096638.86
           STREAMFLOW =        3.2519D+07             STREAMFLOW =         445539.47
     GW BOUNDARY FLOW =                         GW BOUNDARY FLOW =                  

   INFLOWS - OUTFLOWS =        5.4210D+07     INFLOWS - OUTFLOWS =       -1542178.33
             --------                                   --------

 TOTAL STORAGE CHANGE =        5.1112D+07         STORAGE CHANGE =       -1565266.37
       --------------                             --------------
         LAND SURFACE =        4.1650D+07           LAND SURFACE =        -363896.62
            SOIL ZONE =        1.7867D+07              SOIL ZONE =        -515386.39
     UNSATURATED ZONE =       -1282814.23       UNSATURATED ZONE =          57271.04
       SATURATED ZONE =       -1.4021D+07         SATURATED ZONE =        -200546.16
                LAKES =        6898640.50                  LAKES =        -542708.25

 OVERALL BUDGET ERROR =        3098041.70           BUDGET ERROR =          23088.04


  PERCENT DISCREPANCY =              1.49    PERCENT DISCREPANCY =              1.49



1
 SUMMARY VOLUMETRIC BUDGET FOR GSFLOW 
 DATE: 01 13 1981              CUMULATIVE TIME STEP:     105
 MODFLOW STRESS PERIOD      1     CURRENT TIME STEP:     105     ITERATIONS:      22

 -----------------------------------------------------------------------------------

   CUMULATIVE VOLUMES               L**3   RATES FOR THIS TIME STEP           L**3/T
   ------------------                      ------------------------

                                     IN                                         IN
                                     --                                         --
        PRECIPITATION =        2.1223D+08          PRECIPITATION =                  
           STREAMFLOW =                               STREAMFLOW =                  
     GW BOUNDARY FLOW =                         GW BOUNDARY FLOW =                  


                                    OUT                                        OUT
                                    ---                                        ---
   EVAPOTRANSPIRATION =        1.3056D+08     EVAPOTRANSPIRATION =        1362295.86
           STREAMFLOW =        3.5649D+07             STREAMFLOW =         457520.00
     GW BOUNDARY FLOW =                         GW BOUNDARY FLOW =                  

   INFLOWS - OUTFLOWS =        4.6015D+07     INFLOWS - OUTFLOWS =       -1819815.86
             --------                                   --------

 TOTAL STORAGE CHANGE =        4.2756D+07         STORAGE CHANGE =       -1834433.63
       --------------                             --------------
         LAND SURFACE =        4.0150D+07           LAND SURFACE =        -487513.22
            SOIL ZONE =        1.5630D+07              SOIL ZONE =        -437311.36
     UNSATURATED ZONE =       -1185051.50       UNSATURATED ZONE =         -19910.24
       SATURATED ZONE =       -1.5272D+07         SATURATED ZONE =        -165648.44
                LAKES =        3432427.09                  LAKES =        -724050.38

 OVERALL BUDGET ERROR =        3258718.38           BUDGET ERROR =          14617.77


  PERCENT DISCREPANCY =              1.55    PERCENT DISCREPANCY =              0.80



1
 SUMMARY VOLUMETRIC BUDGET FOR GSFLOW 
 DATE: 01 20 1981              CUMULATIVE TIME STEP:     112
 MODFLOW STRESS PERIOD      1     CURRENT TIME STEP:     112     ITERATIONS:      12

 -----------------------------------------------------------------------------------

   CUMULATIVE VOLUMES               L**3   RATES FOR THIS TIME STEP           L**3/T
   ------------------                      ------------------------

                                     IN                                         IN
                                     --                                         --
        PRECIPITATION =        2.2423D+08          PRECIPITATION =        6001392.59
           STREAMFLOW =                               STREAMFLOW =                  
     GW BOUNDARY FLOW =                         GW BOUNDARY FLOW =                  


                                    OUT                                        OUT
                                    ---                                        ---
   EVAPOTRANSPIRATION =        1.4141D+08     EVAPOTRANSPIRATION =        1827604.47
           STREAMFLOW =        3.9240D+07             STREAMFLOW =         485526.91
     GW BOUNDARY FLOW =                         GW BOUNDARY FLOW =                  

   INFLOWS - OUTFLOWS =        4.3575D+07     INFLOWS - OUTFLOWS =        3688261.21
             --------                                   --------

 TOTAL STORAGE CHANGE =        4.0091D+07         STORAGE CHANGE =        3591226.92
       --------------                             --------------
         LAND SURFACE =        3.7553D+07           LAND SURFACE =         667028.90
            SOIL ZONE =        1.7162D+07              SOIL ZONE =        1246562.33
     UNSATURATED ZONE =        -946916.74       UNSATURATED ZONE =         107564.86
       SATURATED ZONE =       -1.5910D+07         SATURATED ZONE =          78885.08
                LAKES =        2233495.92                  LAKES =        1491185.75

 OVERALL BUDGET ERROR =        3483584.68           BUDGET ERROR =          97034.30


  PERCENT DISCREPANCY =              1.57    PERCENT DISCREPANCY =              1.63



1
 SUMMARY VOLUMETRIC BUDGET FOR GSFLOW 
 DATE: 01 27 1981              CUMULATIVE TIME STEP:     119
 MODFLOW STRESS PERIOD      1     CURRENT TIME STEP:     119     ITERATIONS:       3

 -----------------------------------------------------------------------------------

   CUMULATIVE VOLUMES               L**3   RATES FOR THIS TIME STEP           L**3/T
   ------------------                      ------------------------

                                     IN                                         IN
                                     --                                         --
        PRECIPITATION =        3.3525D+08          PRECIPITATION =        6.0014D+07
           STREAMFLOW =                               STREAMFLOW =                  
     GW BOUNDARY FLOW =                         GW BOUNDARY FLOW =                  


                                    OUT                                        OUT
                                    ---                                        ---
   EVAPOTRANSPIRATION =        1.5034D+08     EVAPOTRANSPIRATION =         667107.53
           STREAMFLOW =        4.1752D+07             STREAMFLOW =         345819.56
     GW BOUNDARY FLOW =                         GW BOUNDARY FLOW =                  

   INFLOWS - OUTFLOWS =        1.4316D+08     INFLOWS - OUTFLOWS =        5.9001D+07
             --------                                   --------

 TOTAL STORAGE CHANGE =        1.3905D+08         STORAGE CHANGE =        5.8494D+07
       --------------                             --------------
         LAND SURFACE =        1.0749D+08           LAND SURFACE =        4.1073D+07
            SOIL ZONE =        1.9001D+07              SOIL ZONE =        1573979.37
     UNSATURATED ZONE =        -445734.24       UNSATURATED ZONE =         104506.90
       SATURATED ZONE =       -1.6625D+07         SATURATED ZONE =         -54784.88
                LAKES =        2.9630D+07                  LAKES =        1.5798D+07

 OVERALL BUDGET ERROR =        4111632.63           BUDGET ERROR =         507061.19


  PERCENT DISCREPANCY =              1.23    PERCENT DISCREPANCY =              0.85



1
 SUMMARY VOLUMETRIC BUDGET FOR GSFLOW 
 DATE: 02 03 1981              CUMULATIVE TIME STEP:     126
 MODFLOW STRESS PERIOD      1     CURRENT TIME STEP:     126     ITERATIONS:      33

 -----------------------------------------------------------------------------------

   CUMULATIVE VOLUMES               L**3   RATES FOR THIS TIME STEP           L**3/T
   ------------------                      ------------------------

                                     IN                                         IN
                                     --                                         --
        PRECIPITATION =        4.0137D+08          PRECIPITATION =                  
           STREAMFLOW =                               STREAMFLOW =                  
     GW BOUNDARY FLOW =                         GW BOUNDARY FLOW =                  


                                    OUT                                        OUT
                                    ---                                        ---
   EVAPOTRANSPIRATION =        1.5400D+08     EVAPOTRANSPIRATION =         906829.34
           STREAMFLOW =        4.4232D+07             STREAMFLOW =         354896.22
     GW BOUNDARY FLOW =                         GW BOUNDARY FLOW =                  

   INFLOWS - OUTFLOWS =        2.0313D+08     INFLOWS - OUTFLOWS =       -1261725.56
             --------                                   --------

 TOTAL STORAGE CHANGE =        1.9850D+08         STORAGE CHANGE =       -1285810.56
       --------------                             --------------
         LAND SURFACE =        1.5384D+08           LAND SURFACE =        -497558.00
            SOIL ZONE =        1.7982D+07              SOIL ZONE =        -139195.67
     UNSATURATED ZONE =        -165764.82       UNSATURATED ZONE =           2392.84
       SATURATED ZONE =       -1.7831D+07         SATURATED ZONE =        -166634.97
                LAKES =        4.4667D+07                  LAKES =        -484814.75

 OVERALL BUDGET ERROR =        4636737.43           BUDGET ERROR =          24085.00


  PERCENT DISCREPANCY =              1.16    PERCENT DISCREPANCY =              1.89



1
 SUMMARY VOLUMETRIC BUDGET FOR GSFLOW 
 DATE: 02 10 1981              CUMULATIVE TIME STEP:     133
 MODFLOW STRESS PERIOD      1     CURRENT TIME STEP:     133     ITERATIONS:       3

 -----------------------------------------------------------------------------------

   CUMULATIVE VOLUMES               L**3   RATES FOR THIS TIME STEP           L**3/T
   ------------------                      ------------------------

                                     IN                                         IN
                                     --                                         --
        PRECIPITATION =        4.1375D+08          PRECIPITATION =        3095932.43
           STREAMFLOW =                               STREAMFLOW =                  
     GW BOUNDARY FLOW =                         GW BOUNDARY FLOW =                  


                                    OUT                                        OUT
                                    ---                                        ---
   EVAPOTRANSPIRATION =        1.5946D+08     EVAPOTRANSPIRATION =         587368.47
           STREAMFLOW =        4.6626D+07             STREAMFLOW =         340307.44
     GW BOUNDARY FLOW =                         GW BOUNDARY FLOW =                  

   INFLOWS - OUTFLOWS =        2.0766D+08     INFLOWS - OUTFLOWS =        2168256.53
             --------                                   --------

 TOTAL STORAGE CHANGE =        2.0284D+08         STORAGE CHANGE =        2123512.90
       --------------                             --------------
         LAND SURFACE =        1.5945D+08           LAND SURFACE =        1678292.14
            SOIL ZONE =        1.7845D+07              SOIL ZONE =         181017.62
     UNSATURATED ZONE =        -225407.99       UNSATURATED ZONE =          -7059.54
       SATURATED ZONE =       -1.8966D+07         SATURATED ZONE =        -156654.98
                LAKES =        4.4740D+07                  LAKES =         427917.66

 OVERALL BUDGET ERROR =        4823271.94           BUDGET ERROR =          44743.63


  PERCENT DISCREPANCY =              1.17    PERCENT DISCREPANCY =              1.46



1
 SUMMARY VOLUMETRIC BUDGET FOR GSFLOW 
 DATE: 02 17 1981              CUMULATIVE TIME STEP:     140
 MODFLOW STRESS PERIOD      1     CURRENT TIME STEP:     140     ITERATIONS:       8

 -----------------------------------------------------------------------------------

   CUMULATIVE VOLUMES               L**3   RATES FOR THIS TIME STEP           L**3/T
   ------------------                      ------------------------

                                     IN                                         IN
                                     --                                         --
        PRECIPITATION =        4.6328D+08          PRECIPITATION =                  
           STREAMFLOW =                               STREAMFLOW =                  
     GW BOUNDARY FLOW =                         GW BOUNDARY FLOW =                  


                                    OUT                                        OUT
                                    ---                                        ---
   EVAPOTRANSPIRATION =        1.7084D+08     EVAPOTRANSPIRATION =        2633873.41
           STREAMFLOW =        4.8976D+07             STREAMFLOW =         285311.38
     GW BOUNDARY FLOW =                         GW BOUNDARY FLOW =                  

   INFLOWS - OUTFLOWS =        2.4346D+08     INFLOWS - OUTFLOWS =       -2919184.78
             --------                                   --------

 TOTAL STORAGE CHANGE =        2.3801D+08         STORAGE CHANGE =       -2916809.37
       --------------                             --------------
         LAND SURFACE =        1.7515D+08           LAND SURFACE =       -2198085.74
            SOIL ZONE =        2.4158D+07              SOIL ZONE =         -19319.50
     UNSATURATED ZONE =         405396.44       UNSATURATED ZONE =          83071.77
       SATURATED ZONE =       -1.9211D+07         SATURATED ZONE =        -127092.90
                LAKES =        5.7513D+07                  LAKES =        -655383.00

 OVERALL BUDGET ERROR =        5449609.34           BUDGET ERROR =          -2375.42


  PERCENT DISCREPANCY =              1.18    PERCENT DISCREPANCY =             -0.08



1
 SUMMARY VOLUMETRIC BUDGET FOR GSFLOW 
 DATE: 02 24 1981              CUMULATIVE TIME STEP:     147
 MODFLOW STRESS PERIOD      1     CURRENT TIME STEP:     147     ITERATIONS:      15

 -----------------------------------------------------------------------------------

   CUMULATIVE VOLUMES               L**3   RATES FOR THIS TIME STEP           L**3/T
   ------------------                      ------------------------

                                     IN                                         IN
                                     --                                         --
        PRECIPITATION =        4.8805D+08          PRECIPITATION =        1.8576D+07
           STREAMFLOW =                               STREAMFLOW =                  
     GW BOUNDARY FLOW =                         GW BOUNDARY FLOW =                  


                                    OUT                                        OUT
                                    ---                                        ---
   EVAPOTRANSPIRATION =        1.8431D+08     EVAPOTRANSPIRATION =        1366787.01
           STREAMFLOW =        5.0059D+07             STREAMFLOW =         143110.48
     GW BOUNDARY FLOW =                         GW BOUNDARY FLOW =                  

   INFLOWS - OUTFLOWS =        2.5369D+08     INFLOWS - OUTFLOWS =        1.7066D+07
             --------                                   --------

 TOTAL STORAGE CHANGE =        2.4778D+08         STORAGE CHANGE =        1.6923D+07
       --------------                             --------------
         LAND SURFACE =        1.7623D+08           LAND SURFACE =        1.1076D+07
            SOIL ZONE =        2.6321D+07              SOIL ZONE =         446959.31
     UNSATURATED ZONE =       -1350328.53       UNSATURATED ZONE =         264662.02
       SATURATED ZONE =       -1.7665D+07         SATURATED ZONE =           1139.38
                LAKES =        6.4244D+07                  LAKES =        5133717.00

 OVERALL BUDGET ERROR =        5903287.95           BUDGET ERROR =         142740.71


  PERCENT DISCREPANCY =              1.22    PERCENT DISCREPANCY =              0.77



1
 SUMMARY VOLUMETRIC BUDGET FOR GSFLOW 
 DATE: 03 03 1981              CUMULATIVE TIME STEP:     154
 MODFLOW STRESS PERIOD      1     CURRENT TIME STEP:     154     ITERATIONS:      23

 -----------------------------------------------------------------------------------

   CUMULATIVE VOLUMES               L**3   RATES FOR THIS TIME STEP           L**3/T
   ------------------                      ------------------------

                                     IN                                         IN
                                     --                                         --
        PRECIPITATION =        5.0056D+08          PRECIPITATION =                  
           STREAMFLOW =                               STREAMFLOW =                  
     GW BOUNDARY FLOW =                         GW BOUNDARY FLOW =                  


                                    OUT                                        OUT
                                    ---                                        ---
   EVAPOTRANSPIRATION =        1.9295D+08     EVAPOTRANSPIRATION =        2189146.51
           STREAMFLOW =        5.1106D+07             STREAMFLOW =         161582.02
     GW BOUNDARY FLOW =                         GW BOUNDARY FLOW =                  

   INFLOWS - OUTFLOWS =        2.5651D+08     INFLOWS - OUTFLOWS =       -2350728.52
             --------                                   --------

 TOTAL STORAGE CHANGE =        2.5026D+08         STORAGE CHANGE =       -2386181.93
       --------------                             --------------
         LAND SURFACE =        1.7911D+08           LAND SURFACE =       -1090232.32
            SOIL ZONE =        2.4586D+07              SOIL ZONE =        -326196.32
     UNSATURATED ZONE =        -727488.98       UNSATURATED ZONE =         -30547.49
       SATURATED ZONE =       -1.8893D+07         SATURATED ZONE =        -176415.11
                LAKES =        6.6192D+07                  LAKES =        -762790.69

 OVERALL BUDGET ERROR =        6243580.67           BUDGET ERROR =          35453.41


  PERCENT DISCREPANCY =              1.26    PERCENT DISCREPANCY =              1.50



1
 SUMMARY VOLUMETRIC BUDGET FOR GSFLOW 
 DATE: 03 10 1981              CUMULATIVE TIME STEP:     161
 MODFLOW STRESS PERIOD      1     CURRENT TIME STEP:     161     ITERATIONS:      26

 -----------------------------------------------------------------------------------

   CUMULATIVE VOLUMES               L**3   RATES FOR THIS TIME STEP           L**3/T
   ------------------                      ------------------------

                                     IN                                         IN
                                     --                                         --
        PRECIPITATION =        5.0378D+08          PRECIPITATION =        3221591.34
           STREAMFLOW =                               STREAMFLOW =                  
     GW BOUNDARY FLOW =                         GW BOUNDARY FLOW =                  


                                    OUT                                        OUT
                                    ---                                        ---
   EVAPOTRANSPIRATION =        2.1012D+08     EVAPOTRANSPIRATION =        1945247.67
           STREAMFLOW =        5.2250D+07             STREAMFLOW =         164176.67
     GW BOUNDARY FLOW =                         GW BOUNDARY FLOW =                  

   INFLOWS - OUTFLOWS =        2.4142D+08     INFLOWS - OUTFLOWS =        1112166.99
             --------                                   --------

 TOTAL STORAGE CHANGE =        2.3492D+08         STORAGE CHANGE =        1059359.79
       --------------                             --------------
         LAND SURFACE =        1.6720D+08           LAND SURFACE =       -1613217.75
            SOIL ZONE =        2.5253D+07              SOIL ZONE =        1106658.60
     UNSATURATED ZONE =        -940163.87       UNSATURATED ZONE =         116974.54
       SATURATED ZONE =       -1.9550D+07         SATURATED ZONE =          96800.02
                LAKES =        6.2962D+07                  LAKES =        1352144.38

 OVERALL BUDGET ERROR =        6493002.90           BUDGET ERROR =          52807.20


  PERCENT DISCREPANCY =              1.30    PERCENT DISCREPANCY =              1.65



1
 SUMMARY VOLUMETRIC BUDGET FOR GSFLOW 
 DATE: 03 17 1981              CUMULATIVE TIME STEP:     168
 MODFLOW STRESS PERIOD      1     CURRENT TIME STEP:     168     ITERATIONS:      41

 -----------------------------------------------------------------------------------

   CUMULATIVE VOLUMES               L**3   RATES FOR THIS TIME STEP           L**3/T
   ------------------                      ------------------------

                                     IN                                         IN
                                     --                                         --
        PRECIPITATION =        5.1345D+08          PRECIPITATION =        3221591.34
           STREAMFLOW =                               STREAMFLOW =                  
     GW BOUNDARY FLOW =                         GW BOUNDARY FLOW =                  


                                    OUT                                        OUT
                                    ---                                        ---
   EVAPOTRANSPIRATION =        2.2481D+08     EVAPOTRANSPIRATION =        1067297.29
           STREAMFLOW =        5.3446D+07             STREAMFLOW =         174600.14
     GW BOUNDARY FLOW =                         GW BOUNDARY FLOW =                  

   INFLOWS - OUTFLOWS =        2.3519D+08     INFLOWS - OUTFLOWS =        1979693.91
             --------                                   --------

 TOTAL STORAGE CHANGE =        2.2851D+08         STORAGE CHANGE =        1931467.19
       --------------                             --------------
         LAND SURFACE =        1.6344D+08           LAND SURFACE =        1577714.37
            SOIL ZONE =        2.4510D+07              SOIL ZONE =         -32026.43
     UNSATURATED ZONE =        -907711.40       UNSATURATED ZONE =        -120125.99
       SATURATED ZONE =       -2.0344D+07         SATURATED ZONE =         -15901.45
                LAKES =        6.1806D+07                  LAKES =         521806.69

 OVERALL BUDGET ERROR =        6684131.29           BUDGET ERROR =          48226.72


  PERCENT DISCREPANCY =              1.31    PERCENT DISCREPANCY =              1.51



1
 SUMMARY VOLUMETRIC BUDGET FOR GSFLOW 
 DATE: 03 24 1981              CUMULATIVE TIME STEP:     175
 MODFLOW STRESS PERIOD      1     CURRENT TIME STEP:     175     ITERATIONS:      64

 -----------------------------------------------------------------------------------

   CUMULATIVE VOLUMES               L**3   RATES FOR THIS TIME STEP           L**3/T
   ------------------                      ------------------------

                                     IN                                         IN
                                     --                                         --
        PRECIPITATION =        5.7144D+08          PRECIPITATION =        6443182.67
           STREAMFLOW =                               STREAMFLOW =                  
     GW BOUNDARY FLOW =                         GW BOUNDARY FLOW =                  


                                    OUT                                        OUT
                                    ---                                        ---
   EVAPOTRANSPIRATION =        2.3902D+08     EVAPOTRANSPIRATION =        1738162.29
           STREAMFLOW =        5.4583D+07             STREAMFLOW =         165120.45
     GW BOUNDARY FLOW =                         GW BOUNDARY FLOW =                  

   INFLOWS - OUTFLOWS =        2.7783D+08     INFLOWS - OUTFLOWS =        4539899.93
             --------                                   --------

 TOTAL STORAGE CHANGE =        2.7056D+08         STORAGE CHANGE =        4470588.47
       --------------                             --------------
         LAND SURFACE =        1.9173D+08           LAND SURFACE =        1635221.99
            SOIL ZONE =        2.6485D+07              SOIL ZONE =         682804.36
     UNSATURATED ZONE =        -539160.45       UNSATURATED ZONE =         108641.73
       SATURATED ZONE =       -2.0937D+07         SATURATED ZONE =          60372.27
                LAKES =        7.3819D+07                  LAKES =        1983548.12

 OVERALL BUDGET ERROR =        7275189.16           BUDGET ERROR =          69311.45


  PERCENT DISCREPANCY =              1.28    PERCENT DISCREPANCY =              1.08



1
 SUMMARY VOLUMETRIC BUDGET FOR GSFLOW 
 DATE: 03 31 1981              CUMULATIVE TIME STEP:     182
 MODFLOW STRESS PERIOD      1     CURRENT TIME STEP:     182     ITERATIONS:      23

 -----------------------------------------------------------------------------------

   CUMULATIVE VOLUMES               L**3   RATES FOR THIS TIME STEP           L**3/T
   ------------------                      ------------------------

                                     IN                                         IN
                                     --                                         --
        PRECIPITATION =        6.3587D+08          PRECIPITATION =        6443182.67
           STREAMFLOW =                               STREAMFLOW =                  
     GW BOUNDARY FLOW =                         GW BOUNDARY FLOW =                  


                                    OUT                                        OUT
                                    ---                                        ---
   EVAPOTRANSPIRATION =        2.5375D+08     EVAPOTRANSPIRATION =        1160731.58
           STREAMFLOW =        5.5759D+07             STREAMFLOW =         154416.50
     GW BOUNDARY FLOW =                         GW BOUNDARY FLOW =                  

   INFLOWS - OUTFLOWS =        3.2636D+08     INFLOWS - OUTFLOWS =        5128034.59
             --------                                   --------

 TOTAL STORAGE CHANGE =        3.1847D+08         STORAGE CHANGE =        5061014.69
       --------------                             --------------
         LAND SURFACE =        2.1769D+08           LAND SURFACE =        2852555.99
            SOIL ZONE =        2.7937D+07              SOIL ZONE =         387311.74
     UNSATURATED ZONE =       -4218666.90       UNSATURATED ZONE =         138706.24
       SATURATED ZONE =       -1.7702D+07         SATURATED ZONE =         -81902.66
                LAKES =        9.4761D+07                  LAKES =        1764343.38

 OVERALL BUDGET ERROR =        7884622.07           BUDGET ERROR =          67019.90


  PERCENT DISCREPANCY =              1.25    PERCENT DISCREPANCY =              1.05



1
 SUMMARY VOLUMETRIC BUDGET FOR GSFLOW 
 DATE: 04 07 1981              CUMULATIVE TIME STEP:     189
 MODFLOW STRESS PERIOD      1     CURRENT TIME STEP:     189     ITERATIONS:      26

 -----------------------------------------------------------------------------------

   CUMULATIVE VOLUMES               L**3   RATES FOR THIS TIME STEP           L**3/T
   ------------------                      ------------------------

                                     IN                                         IN
                                     --                                         --
        PRECIPITATION =        6.5328D+08          PRECIPITATION =                  
           STREAMFLOW =                               STREAMFLOW =                  
     GW BOUNDARY FLOW =                         GW BOUNDARY FLOW =                  


                                    OUT                                        OUT
                                    ---                                        ---
   EVAPOTRANSPIRATION =        2.7718D+08     EVAPOTRANSPIRATION =        4285702.04
           STREAMFLOW =        5.6899D+07             STREAMFLOW =         205429.34
     GW BOUNDARY FLOW =                         GW BOUNDARY FLOW =                  

   INFLOWS - OUTFLOWS =        3.1920D+08     INFLOWS - OUTFLOWS =       -4491131.39
             --------                                   --------

 TOTAL STORAGE CHANGE =        3.1104D+08         STORAGE CHANGE =       -4522957.54
       --------------                             --------------
         LAND SURFACE =        1.9677D+08           LAND SURFACE =       -6842716.19
            SOIL ZONE =        2.9013D+07              SOIL ZONE =          88919.39
     UNSATURATED ZONE =       -3219083.79       UNSATURATED ZONE =         203930.88
       SATURATED ZONE =       -1.6606D+07         SATURATED ZONE =         268963.75
                LAKES =        1.0508D+08                  LAKES =        1757944.62

 OVERALL BUDGET ERROR =        8168093.53           BUDGET ERROR =          31826.16


  PERCENT DISCREPANCY =              1.26    PERCENT DISCREPANCY =              0.71



1
 SUMMARY VOLUMETRIC BUDGET FOR GSFLOW 
 DATE: 04 14 1981              CUMULATIVE TIME STEP:     196
 MODFLOW STRESS PERIOD      1     CURRENT TIME STEP:     196     ITERATIONS:      27

 -----------------------------------------------------------------------------------

   CUMULATIVE VOLUMES               L**3   RATES FOR THIS TIME STEP           L**3/T
   ------------------                      ------------------------

                                     IN                                         IN
                                     --                                         --
        PRECIPITATION =        6.5328D+08          PRECIPITATION =                  
           STREAMFLOW =                               STREAMFLOW =                  
     GW BOUNDARY FLOW =                         GW BOUNDARY FLOW =                  


                                    OUT                                        OUT
                                    ---                                        ---
   EVAPOTRANSPIRATION =        3.0695D+08     EVAPOTRANSPIRATION =        5154581.61
           STREAMFLOW =        5.8150D+07             STREAMFLOW =         172090.22
     GW BOUNDARY FLOW =                         GW BOUNDARY FLOW =                  

   INFLOWS - OUTFLOWS =        2.8819D+08     INFLOWS - OUTFLOWS =       -5326671.83
             --------                                   --------

 TOTAL STORAGE CHANGE =        2.7984D+08         STORAGE CHANGE =       -5342022.16
       --------------                             --------------
         LAND SURFACE =        1.5035D+08           LAND SURFACE =       -7661278.86
            SOIL ZONE =        2.4959D+07              SOIL ZONE =        -872076.33
     UNSATURATED ZONE =       -1273454.47       UNSATURATED ZONE =         340918.59
       SATURATED ZONE =       -1.4957D+07         SATURATED ZONE =         267706.19
                LAKES =        1.2076D+08                  LAKES =        2582708.25

 OVERALL BUDGET ERROR =        8344554.18           BUDGET ERROR =          15350.33


  PERCENT DISCREPANCY =              1.29    PERCENT DISCREPANCY =              0.29



1
 SUMMARY VOLUMETRIC BUDGET FOR GSFLOW 
 DATE: 04 21 1981              CUMULATIVE TIME STEP:     203
 MODFLOW STRESS PERIOD      1     CURRENT TIME STEP:     203     ITERATIONS:      23

 -----------------------------------------------------------------------------------

   CUMULATIVE VOLUMES               L**3   RATES FOR THIS TIME STEP           L**3/T
   ------------------                      ------------------------

                                     IN                                         IN
                                     --                                         --
        PRECIPITATION =        6.7418D+08          PRECIPITATION =                  
           STREAMFLOW =                               STREAMFLOW =                  
     GW BOUNDARY FLOW =                         GW BOUNDARY FLOW =                  


                                    OUT                                        OUT
                                    ---                                        ---
   EVAPOTRANSPIRATION =        3.3695D+08     EVAPOTRANSPIRATION =        5643546.08
           STREAMFLOW =        5.9365D+07             STREAMFLOW =         169593.05
     GW BOUNDARY FLOW =                         GW BOUNDARY FLOW =                  

   INFLOWS - OUTFLOWS =        2.7786D+08     INFLOWS - OUTFLOWS =       -5813139.12
             --------                                   --------

 TOTAL STORAGE CHANGE =        2.6930D+08         STORAGE CHANGE =       -5832484.13
       --------------                             --------------
         LAND SURFACE =        1.2727D+08           LAND SURFACE =       -3298312.76
            SOIL ZONE =        2.3037D+07              SOIL ZONE =       -2029636.13
     UNSATURATED ZONE =         358808.26       UNSATURATED ZONE =         166972.06
       SATURATED ZONE =       -1.5022D+07         SATURATED ZONE =         -89987.73
                LAKES =        1.3366D+08                  LAKES =        -581519.56

 OVERALL BUDGET ERROR =        8558600.36           BUDGET ERROR =          19345.00


  PERCENT DISCREPANCY =              1.28    PERCENT DISCREPANCY =              0.33



1
 SUMMARY VOLUMETRIC BUDGET FOR GSFLOW 
 DATE: 04 28 1981              CUMULATIVE TIME STEP:     210
 MODFLOW STRESS PERIOD      1     CURRENT TIME STEP:     210     ITERATIONS:      37

 -----------------------------------------------------------------------------------

   CUMULATIVE VOLUMES               L**3   RATES FOR THIS TIME STEP           L**3/T
   ------------------                      ------------------------

                                     IN                                         IN
                                     --                                         --
        PRECIPITATION =        6.8114D+08          PRECIPITATION =                  
           STREAMFLOW =                               STREAMFLOW =                  
     GW BOUNDARY FLOW =                         GW BOUNDARY FLOW =                  


                                    OUT                                        OUT
                                    ---                                        ---
   EVAPOTRANSPIRATION =        3.7875D+08     EVAPOTRANSPIRATION =        5732792.68
           STREAMFLOW =        6.0577D+07             STREAMFLOW =         169030.45
     GW BOUNDARY FLOW =                         GW BOUNDARY FLOW =                  

   INFLOWS - OUTFLOWS =        2.4181D+08     INFLOWS - OUTFLOWS =       -5901823.14
             --------                                   --------

 TOTAL STORAGE CHANGE =        2.3316D+08         STORAGE CHANGE =       -5913058.75
       --------------                             --------------
         LAND SURFACE =        1.0081D+08           LAND SURFACE =       -4256255.81
            SOIL ZONE =        1.3139D+07              SOIL ZONE =       -1647056.20
     UNSATURATED ZONE =         501558.91       UNSATURATED ZONE =         -64757.11
       SATURATED ZONE =       -1.5074D+07         SATURATED ZONE =          99741.47
                LAKES =        1.3379D+08                  LAKES =         -44731.10

 OVERALL BUDGET ERROR =        8650834.61           BUDGET ERROR =          11235.62


  PERCENT DISCREPANCY =              1.28    PERCENT DISCREPANCY =              0.19



1
 SUMMARY VOLUMETRIC BUDGET FOR GSFLOW 
 DATE: 05 05 1981              CUMULATIVE TIME STEP:     217
 MODFLOW STRESS PERIOD      1     CURRENT TIME STEP:     217     ITERATIONS:      33

 -----------------------------------------------------------------------------------

   CUMULATIVE VOLUMES               L**3   RATES FOR THIS TIME STEP           L**3/T
   ------------------                      ------------------------

                                     IN                                         IN
                                     --                                         --
        PRECIPITATION =        6.8811D+08          PRECIPITATION =                  
           STREAMFLOW =                               STREAMFLOW =                  
     GW BOUNDARY FLOW =                         GW BOUNDARY FLOW =                  


                                    OUT                                        OUT
                                    ---                                        ---
   EVAPOTRANSPIRATION =        4.1741D+08     EVAPOTRANSPIRATION =        3868088.87
           STREAMFLOW =        6.1795D+07             STREAMFLOW =         173796.19
     GW BOUNDARY FLOW =                         GW BOUNDARY FLOW =                  

   INFLOWS - OUTFLOWS =        2.0890D+08     INFLOWS - OUTFLOWS =       -4041885.06
             --------                                   --------

 TOTAL STORAGE CHANGE =        2.0018D+08         STORAGE CHANGE =       -4048133.83
       --------------                             --------------
         LAND SURFACE =        7.4149D+07           LAND SURFACE =       -3147996.29
            SOIL ZONE =        6583791.14              SOIL ZONE =        -908054.28
     UNSATURATED ZONE =       -1057887.95       UNSATURATED ZONE =         -91306.99
       SATURATED ZONE =       -1.4235D+07         SATURATED ZONE =         -41132.45
                LAKES =        1.3474D+08                  LAKES =         140356.19

 OVERALL BUDGET ERROR =        8717969.99           BUDGET ERROR =           6248.77


  PERCENT DISCREPANCY =              1.28    PERCENT DISCREPANCY =              0.15



1
 SUMMARY VOLUMETRIC BUDGET FOR GSFLOW 
 DATE: 05 12 1981              CUMULATIVE TIME STEP:     224
 MODFLOW STRESS PERIOD      1     CURRENT TIME STEP:     224     ITERATIONS:      50

 -----------------------------------------------------------------------------------

   CUMULATIVE VOLUMES               L**3   RATES FOR THIS TIME STEP           L**3/T
   ------------------                      ------------------------

                                     IN                                         IN
                                     --                                         --
        PRECIPITATION =        6.8811D+08          PRECIPITATION =                  
           STREAMFLOW =                               STREAMFLOW =                  
     GW BOUNDARY FLOW =                         GW BOUNDARY FLOW =                  


                                    OUT                                        OUT
                                    ---                                        ---
   EVAPOTRANSPIRATION =        4.4676D+08     EVAPOTRANSPIRATION =        4661419.14
           STREAMFLOW =        6.2991D+07             STREAMFLOW =         168853.27
     GW BOUNDARY FLOW =                         GW BOUNDARY FLOW =                  

   INFLOWS - OUTFLOWS =        1.7836D+08     INFLOWS - OUTFLOWS =       -4830272.41
             --------                                   --------

 TOTAL STORAGE CHANGE =        1.6964D+08         STORAGE CHANGE =       -4832636.18
       --------------                             --------------
         LAND SURFACE =        4.9187D+07           LAND SURFACE =       -3687498.60
            SOIL ZONE =          54979.46              SOIL ZONE =        -937511.65
     UNSATURATED ZONE =       -3636898.44       UNSATURATED ZONE =        -937228.81
       SATURATED ZONE =       -1.3023D+07         SATURATED ZONE =         519464.84
                LAKES =        1.3706D+08                  LAKES =         210138.05

 OVERALL BUDGET ERROR =        8718841.92           BUDGET ERROR =           2363.77


  PERCENT DISCREPANCY =              1.28    PERCENT DISCREPANCY =              0.05



1
 SUMMARY VOLUMETRIC BUDGET FOR GSFLOW 
 DATE: 05 19 1981              CUMULATIVE TIME STEP:     231
 MODFLOW STRESS PERIOD      1     CURRENT TIME STEP:     231     ITERATIONS:      26

 -----------------------------------------------------------------------------------

   CUMULATIVE VOLUMES               L**3   RATES FOR THIS TIME STEP           L**3/T
   ------------------                      ------------------------

                                     IN                                         IN
                                     --                                         --
        PRECIPITATION =        7.4671D+08          PRECIPITATION =        3447112.78
           STREAMFLOW =                               STREAMFLOW =                  
     GW BOUNDARY FLOW =                         GW BOUNDARY FLOW =                  


                                    OUT                                        OUT
                                    ---                                        ---
   EVAPOTRANSPIRATION =        4.6507D+08     EVAPOTRANSPIRATION =        1735869.96
           STREAMFLOW =        6.4182D+07             STREAMFLOW =         172527.25
     GW BOUNDARY FLOW =                         GW BOUNDARY FLOW =                  

   INFLOWS - OUTFLOWS =        2.1746D+08     INFLOWS - OUTFLOWS =        1538715.57
             --------                                   --------

 TOTAL STORAGE CHANGE =        2.0843D+08         STORAGE CHANGE =        1517381.21
       --------------                             --------------
         LAND SURFACE =        5.2617D+07           LAND SURFACE =       -3316295.73
            SOIL ZONE =        1.1004D+07              SOIL ZONE =        1975567.02
     UNSATURATED ZONE =       -3879802.74       UNSATURATED ZONE =          56196.72
       SATURATED ZONE =       -1.2656D+07         SATURATED ZONE =          17556.95
                LAKES =        1.6135D+08                  LAKES =        2784356.25

 OVERALL BUDGET ERROR =        9025573.61           BUDGET ERROR =          21334.36


  PERCENT DISCREPANCY =              1.22    PERCENT DISCREPANCY =              0.62



1
 SUMMARY VOLUMETRIC BUDGET FOR GSFLOW 
 DATE: 05 26 1981              CUMULATIVE TIME STEP:     238
 MODFLOW STRESS PERIOD      1     CURRENT TIME STEP:     238     ITERATIONS:      51

 -----------------------------------------------------------------------------------

   CUMULATIVE VOLUMES               L**3   RATES FOR THIS TIME STEP           L**3/T
   ------------------                      ------------------------

                                     IN                                         IN
                                     --                                         --
        PRECIPITATION =        7.7429D+08          PRECIPITATION =        1.7236D+07
           STREAMFLOW =                               STREAMFLOW =                  
     GW BOUNDARY FLOW =                         GW BOUNDARY FLOW =                  


                                    OUT                                        OUT
                                    ---                                        ---
   EVAPOTRANSPIRATION =        4.9626D+08     EVAPOTRANSPIRATION =        2625232.23
           STREAMFLOW =        6.5383D+07             STREAMFLOW =         180466.89
     GW BOUNDARY FLOW =                         GW BOUNDARY FLOW =                  

   INFLOWS - OUTFLOWS =        2.1264D+08     INFLOWS - OUTFLOWS =        1.4430D+07
             --------                                   --------

 TOTAL STORAGE CHANGE =        2.0348D+08         STORAGE CHANGE =        1.4343D+07
       --------------                             --------------
         LAND SURFACE =        3.5599D+07           LAND SURFACE =        -313669.27
            SOIL ZONE =        9565147.95              SOIL ZONE =        4556613.18
     UNSATURATED ZONE =       -3767325.60       UNSATURATED ZONE =          53725.67
       SATURATED ZONE =       -1.2132D+07         SATURATED ZONE =         594993.25
                LAKES =        1.7421D+08                  LAKES =        9451305.00

 OVERALL BUDGET ERROR =        9165025.40           BUDGET ERROR =          86896.71


  PERCENT DISCREPANCY =              1.19    PERCENT DISCREPANCY =              0.51



1
 SUMMARY VOLUMETRIC BUDGET FOR GSFLOW 
 DATE: 06 02 1981              CUMULATIVE TIME STEP:     245
 MODFLOW STRESS PERIOD      1     CURRENT TIME STEP:     245     ITERATIONS:      66

 -----------------------------------------------------------------------------------

   CUMULATIVE VOLUMES               L**3   RATES FOR THIS TIME STEP           L**3/T
   ------------------                      ------------------------

                                     IN                                         IN
                                     --                                         --
        PRECIPITATION =        7.7429D+08          PRECIPITATION =                  
           STREAMFLOW =                               STREAMFLOW =                  
     GW BOUNDARY FLOW =                         GW BOUNDARY FLOW =                  


                                    OUT                                        OUT
                                    ---                                        ---
   EVAPOTRANSPIRATION =        5.3734D+08     EVAPOTRANSPIRATION =        5903567.32
           STREAMFLOW =        6.6603D+07             STREAMFLOW =         178725.95
     GW BOUNDARY FLOW =                         GW BOUNDARY FLOW =                  

   INFLOWS - OUTFLOWS =        1.7035D+08     INFLOWS - OUTFLOWS =       -6082293.27
             --------                                   --------

 TOTAL STORAGE CHANGE =        1.6118D+08         STORAGE CHANGE =       -6091662.01
       --------------                             --------------
         LAND SURFACE =        2.1617D+07           LAND SURFACE =       -1684277.36
            SOIL ZONE =       -6253416.00              SOIL ZONE =       -1911406.43
     UNSATURATED ZONE =       -8561726.45       UNSATURATED ZONE =        -226539.40
       SATURATED ZONE =       -1.0548D+07         SATURATED ZONE =        -230637.69
                LAKES =        1.6492D+08                  LAKES =       -2038801.12

 OVERALL BUDGET ERROR =        9171152.26           BUDGET ERROR =           9368.73


  PERCENT DISCREPANCY =              1.19    PERCENT DISCREPANCY =              0.15



1
 SUMMARY VOLUMETRIC BUDGET FOR GSFLOW 
 DATE: 06 09 1981              CUMULATIVE TIME STEP:     252
 MODFLOW STRESS PERIOD      1     CURRENT TIME STEP:     252     ITERATIONS:      23

 -----------------------------------------------------------------------------------

   CUMULATIVE VOLUMES               L**3   RATES FOR THIS TIME STEP           L**3/T
   ------------------                      ------------------------

                                     IN                                         IN
                                     --                                         --
        PRECIPITATION =        7.7752D+08          PRECIPITATION =                  
           STREAMFLOW =                               STREAMFLOW =                  
     GW BOUNDARY FLOW =                         GW BOUNDARY FLOW =                  


                                    OUT                                        OUT
                                    ---                                        ---
   EVAPOTRANSPIRATION =        5.7507D+08     EVAPOTRANSPIRATION =        5602539.11
           STREAMFLOW =        6.7847D+07             STREAMFLOW =         203133.83
     GW BOUNDARY FLOW =                         GW BOUNDARY FLOW =                  

   INFLOWS - OUTFLOWS =        1.3460D+08     INFLOWS - OUTFLOWS =       -5805672.94
             --------                                   --------

 TOTAL STORAGE CHANGE =        1.2540D+08         STORAGE CHANGE =       -5804304.82
       --------------                             --------------
         LAND SURFACE =        1.1150D+07           LAND SURFACE =       -1087272.49
            SOIL ZONE =       -1.7018D+07              SOIL ZONE =       -1814667.49
     UNSATURATED ZONE =       -1.0138D+07       UNSATURATED ZONE =        -263940.75
       SATURATED ZONE =       -1.1724D+07         SATURATED ZONE =        -232926.09
                LAKES =        1.5313D+08                  LAKES =       -2405498.00

 OVERALL BUDGET ERROR =        9204319.28           BUDGET ERROR =          -1368.12


  PERCENT DISCREPANCY =              1.19    PERCENT DISCREPANCY =             -0.02



1
 SUMMARY VOLUMETRIC BUDGET FOR GSFLOW 
[...]



1
 SUMMARY VOLUMETRIC BUDGET FOR GSFLOW 
 DATE: 11 29 1983              CUMULATIVE TIME STEP:    1155
 MODFLOW STRESS PERIOD      1     CURRENT TIME STEP:    1155     ITERATIONS:       4

 -----------------------------------------------------------------------------------

   CUMULATIVE VOLUMES               L**3   RATES FOR THIS TIME STEP           L**3/T
   ------------------                      ------------------------

                                     IN                                         IN
                                     --                                         --
        PRECIPITATION =        5.5463D+09          PRECIPITATION =        6461469.31
           STREAMFLOW =                               STREAMFLOW =                  
     GW BOUNDARY FLOW =                         GW BOUNDARY FLOW =                  


                                    OUT                                        OUT
                                    ---                                        ---
   EVAPOTRANSPIRATION =        2.9177D+09     EVAPOTRANSPIRATION =         359133.53
           STREAMFLOW =        1.6169D+09             STREAMFLOW =        4966705.50
     GW BOUNDARY FLOW =                         GW BOUNDARY FLOW =                  

   INFLOWS - OUTFLOWS =        1.0117D+09     INFLOWS - OUTFLOWS =        1135630.28
             --------                                   --------

 TOTAL STORAGE CHANGE =        9.5775D+08         STORAGE CHANGE =        1090320.37
       --------------                             --------------
         LAND SURFACE =        3.3602D+08           LAND SURFACE =        4614418.77
            SOIL ZONE =        5253755.74              SOIL ZONE =         -73322.63
     UNSATURATED ZONE =       -1.4473D+07       UNSATURATED ZONE =          32340.75
       SATURATED ZONE =       -6.9013D+07         SATURATED ZONE =        -171999.02
                LAKES =        6.9997D+08                  LAKES =       -3311117.50

 OVERALL BUDGET ERROR =        5.3962D+07           BUDGET ERROR =          45309.91


  PERCENT DISCREPANCY =              0.98    PERCENT DISCREPANCY =              0.70



1
 SUMMARY VOLUMETRIC BUDGET FOR GSFLOW 
 DATE: 12 06 1983              CUMULATIVE TIME STEP:    1162
 MODFLOW STRESS PERIOD      1     CURRENT TIME STEP:    1162     ITERATIONS:       4

 -----------------------------------------------------------------------------------

   CUMULATIVE VOLUMES               L**3   RATES FOR THIS TIME STEP           L**3/T
   ------------------                      ------------------------

                                     IN                                         IN
                                     --                                         --
        PRECIPITATION =        5.6038D+09          PRECIPITATION =        3198161.89
           STREAMFLOW =                               STREAMFLOW =                  
     GW BOUNDARY FLOW =                         GW BOUNDARY FLOW =                  


                                    OUT                                        OUT
                                    ---                                        ---
   EVAPOTRANSPIRATION =        2.9215D+09     EVAPOTRANSPIRATION =         188792.02
           STREAMFLOW =        1.6522D+09             STREAMFLOW =        5064639.00
     GW BOUNDARY FLOW =                         GW BOUNDARY FLOW =                  

   INFLOWS - OUTFLOWS =        1.0301D+09     INFLOWS - OUTFLOWS =       -2055269.13
             --------                                   --------

 TOTAL STORAGE CHANGE =        9.7581D+08         STORAGE CHANGE =       -2092182.78
       --------------                             --------------
         LAND SURFACE =        3.7454D+08           LAND SURFACE =        2297029.22
            SOIL ZONE =        5790582.04              SOIL ZONE =        -128553.65
     UNSATURATED ZONE =       -1.4283D+07       UNSATURATED ZONE =          36335.84
       SATURATED ZONE =       -6.9963D+07         SATURATED ZONE =        -166378.94
                LAKES =        6.7973D+08                  LAKES =       -4130615.25

 OVERALL BUDGET ERROR =        5.4325D+07           BUDGET ERROR =          36913.66


  PERCENT DISCREPANCY =              0.97    PERCENT DISCREPANCY =              0.70



1
 SUMMARY VOLUMETRIC BUDGET FOR GSFLOW 
 DATE: 12 13 1983              CUMULATIVE TIME STEP:    1169
 MODFLOW STRESS PERIOD      1     CURRENT TIME STEP:    1169     ITERATIONS:       3

 -----------------------------------------------------------------------------------

   CUMULATIVE VOLUMES               L**3   RATES FOR THIS TIME STEP           L**3/T
   ------------------                      ------------------------

                                     IN                                         IN
                                     --                                         --
        PRECIPITATION =        5.6998D+09          PRECIPITATION =        9594484.95
           STREAMFLOW =                               STREAMFLOW =                  
     GW BOUNDARY FLOW =                         GW BOUNDARY FLOW =                  


                                    OUT                                        OUT
                                    ---                                        ---
   EVAPOTRANSPIRATION =        2.9252D+09     EVAPOTRANSPIRATION =         228678.12
           STREAMFLOW =        1.6892D+09             STREAMFLOW =        5260512.00
     GW BOUNDARY FLOW =                         GW BOUNDARY FLOW =                  

   INFLOWS - OUTFLOWS =        1.0853D+09     INFLOWS - OUTFLOWS =        4105294.82
             --------                                   --------

 TOTAL STORAGE CHANGE =        1.0304D+09         STORAGE CHANGE =        4044486.08
       --------------                             --------------
         LAND SURFACE =        4.3882D+08           LAND SURFACE =        7023337.24
            SOIL ZONE =        7018518.97              SOIL ZONE =        -177599.28
     UNSATURATED ZONE =       -1.3739D+07       UNSATURATED ZONE =          54213.13
       SATURATED ZONE =       -7.0795D+07         SATURATED ZONE =        -179518.27
                LAKES =        6.6911D+08                  LAKES =       -2675946.75

 OVERALL BUDGET ERROR =        5.4937D+07           BUDGET ERROR =          60808.75


  PERCENT DISCREPANCY =              0.97    PERCENT DISCREPANCY =              0.64



1
 SUMMARY VOLUMETRIC BUDGET FOR GSFLOW 
 DATE: 12 20 1983              CUMULATIVE TIME STEP:    1176
 MODFLOW STRESS PERIOD      1     CURRENT TIME STEP:    1176     ITERATIONS:       2

 -----------------------------------------------------------------------------------

   CUMULATIVE VOLUMES               L**3   RATES FOR THIS TIME STEP           L**3/T
   ------------------                      ------------------------

                                     IN                                         IN
                                     --                                         --
        PRECIPITATION =        5.7158D+09          PRECIPITATION =                  
           STREAMFLOW =                               STREAMFLOW =                  
     GW BOUNDARY FLOW =                         GW BOUNDARY FLOW =                  


                                    OUT                                        OUT
                                    ---                                        ---
   EVAPOTRANSPIRATION =        2.9331D+09     EVAPOTRANSPIRATION =         340900.26
           STREAMFLOW =        1.7278D+09             STREAMFLOW =        5578472.50
     GW BOUNDARY FLOW =                         GW BOUNDARY FLOW =                  

   INFLOWS - OUTFLOWS =        1.0549D+09     INFLOWS - OUTFLOWS =       -5919372.76
             --------                                   --------

 TOTAL STORAGE CHANGE =        9.9967D+08         STORAGE CHANGE =       -5953880.26
       --------------                             --------------
         LAND SURFACE =        4.4224D+08           LAND SURFACE =        -213886.38
            SOIL ZONE =        7740026.35              SOIL ZONE =        -177154.47
     UNSATURATED ZONE =       -1.3341D+07       UNSATURATED ZONE =          47963.21
       SATURATED ZONE =       -7.1845D+07         SATURATED ZONE =        -183245.61
                LAKES =        6.3487D+08                  LAKES =       -5427557.00

 OVERALL BUDGET ERROR =        5.5259D+07           BUDGET ERROR =          34507.50


  PERCENT DISCREPANCY =              0.97    PERCENT DISCREPANCY =              0.58



1
 SUMMARY VOLUMETRIC BUDGET FOR GSFLOW 
 DATE: 12 27 1983              CUMULATIVE TIME STEP:    1183
 MODFLOW STRESS PERIOD      1     CURRENT TIME STEP:    1183     ITERATIONS:       4

 -----------------------------------------------------------------------------------

   CUMULATIVE VOLUMES               L**3   RATES FOR THIS TIME STEP           L**3/T
   ------------------                      ------------------------

                                     IN                                         IN
                                     --                                         --
        PRECIPITATION =        5.8917D+09          PRECIPITATION =        9594484.95
           STREAMFLOW =                               STREAMFLOW =                  
     GW BOUNDARY FLOW =                         GW BOUNDARY FLOW =                  


                                    OUT                                        OUT
                                    ---                                        ---
   EVAPOTRANSPIRATION =        2.9354D+09     EVAPOTRANSPIRATION =         404409.94
           STREAMFLOW =        1.7668D+09             STREAMFLOW =        5677393.00
     GW BOUNDARY FLOW =                         GW BOUNDARY FLOW =                  

   INFLOWS - OUTFLOWS =        1.1895D+09     INFLOWS - OUTFLOWS =        3512682.01
             --------                                   --------

 TOTAL STORAGE CHANGE =        1.1333D+09         STORAGE CHANGE =        3428566.34
       --------------                             --------------
         LAND SURFACE =        5.6725D+08           LAND SURFACE =        5883788.09
            SOIL ZONE =        8459080.52              SOIL ZONE =         227875.52
     UNSATURATED ZONE =       -1.2946D+07       UNSATURATED ZONE =         114375.95
       SATURATED ZONE =       -7.2590D+07         SATURATED ZONE =         -99137.22
                LAKES =        6.4316D+08                  LAKES =       -2698336.00

 OVERALL BUDGET ERROR =        5.6213D+07           BUDGET ERROR =          84115.67


  PERCENT DISCREPANCY =              0.96    PERCENT DISCREPANCY =              0.88



1
 SUMMARY VOLUMETRIC BUDGET FOR GSFLOW 
 DATE: 01 03 1984              CUMULATIVE TIME STEP:    1190
 MODFLOW STRESS PERIOD      1     CURRENT TIME STEP:    1190     ITERATIONS:       5

 -----------------------------------------------------------------------------------

   CUMULATIVE VOLUMES               L**3   RATES FOR THIS TIME STEP           L**3/T
   ------------------                      ------------------------

                                     IN                                         IN
                                     --                                         --
        PRECIPITATION =        5.9235D+09          PRECIPITATION =                  
           STREAMFLOW =                               STREAMFLOW =                  
     GW BOUNDARY FLOW =                         GW BOUNDARY FLOW =                  


                                    OUT                                        OUT
                                    ---                                        ---
   EVAPOTRANSPIRATION =        2.9418D+09     EVAPOTRANSPIRATION =        1481543.73
           STREAMFLOW =        1.8064D+09             STREAMFLOW =        5603068.50
     GW BOUNDARY FLOW =                         GW BOUNDARY FLOW =                  

   INFLOWS - OUTFLOWS =        1.1752D+09     INFLOWS - OUTFLOWS =       -7084612.23
             --------                                   --------

 TOTAL STORAGE CHANGE =        1.1186D+09         STORAGE CHANGE =       -7112024.56
       --------------                             --------------
         LAND SURFACE =        5.8052D+08           LAND SURFACE =        -950668.00
            SOIL ZONE =        9164011.07              SOIL ZONE =        -186904.88
     UNSATURATED ZONE =       -1.2437D+07       UNSATURATED ZONE =          10322.49
       SATURATED ZONE =       -7.3513D+07         SATURATED ZONE =        -195687.67
                LAKES =        6.1489D+08                  LAKES =       -5789086.50

 OVERALL BUDGET ERROR =        5.6625D+07           BUDGET ERROR =          27412.33


  PERCENT DISCREPANCY =              0.96    PERCENT DISCREPANCY =              0.39



1
 SUMMARY VOLUMETRIC BUDGET FOR GSFLOW 
 DATE: 01 10 1984              CUMULATIVE TIME STEP:    1197
 MODFLOW STRESS PERIOD      1     CURRENT TIME STEP:    1197     ITERATIONS:       4

 -----------------------------------------------------------------------------------

   CUMULATIVE VOLUMES               L**3   RATES FOR THIS TIME STEP           L**3/T
   ------------------                      ------------------------

                                     IN                                         IN
                                     --                                         --
        PRECIPITATION =        5.9235D+09          PRECIPITATION =                  
           STREAMFLOW =                               STREAMFLOW =                  
     GW BOUNDARY FLOW =                         GW BOUNDARY FLOW =                  


                                    OUT                                        OUT
                                    ---                                        ---
   EVAPOTRANSPIRATION =        2.9546D+09     EVAPOTRANSPIRATION =        1767454.07
           STREAMFLOW =        1.8438D+09             STREAMFLOW =        5235924.50
     GW BOUNDARY FLOW =                         GW BOUNDARY FLOW =                  

   INFLOWS - OUTFLOWS =        1.1251D+09     INFLOWS - OUTFLOWS =       -7003378.57
             --------                                   --------

 TOTAL STORAGE CHANGE =        1.0683D+09         STORAGE CHANGE =       -7031442.31
       --------------                             --------------
         LAND SURFACE =        5.6903D+08           LAND SURFACE =       -1858332.27
            SOIL ZONE =        1.0083D+07              SOIL ZONE =         264089.30
     UNSATURATED ZONE =       -1.2501D+07       UNSATURATED ZONE =          21325.45
       SATURATED ZONE =       -7.4395D+07         SATURATED ZONE =        -104496.80
                LAKES =        5.7603D+08                  LAKES =       -5354028.00

 OVERALL BUDGET ERROR =        5.6838D+07           BUDGET ERROR =          28063.74


  PERCENT DISCREPANCY =              0.96    PERCENT DISCREPANCY =              0.40



1
 SUMMARY VOLUMETRIC BUDGET FOR GSFLOW 
 DATE: 01 17 1984              CUMULATIVE TIME STEP:    1204
 MODFLOW STRESS PERIOD      1     CURRENT TIME STEP:    1204     ITERATIONS:      10

 -----------------------------------------------------------------------------------

   CUMULATIVE VOLUMES               L**3   RATES FOR THIS TIME STEP           L**3/T
   ------------------                      ------------------------

                                     IN                                         IN
                                     --                                         --
        PRECIPITATION =        5.9475D+09          PRECIPITATION =                  
           STREAMFLOW =                               STREAMFLOW =                  
     GW BOUNDARY FLOW =                         GW BOUNDARY FLOW =                  


                                    OUT                                        OUT
                                    ---                                        ---
   EVAPOTRANSPIRATION =        2.9584D+09     EVAPOTRANSPIRATION =         519057.21
           STREAMFLOW =        1.8795D+09             STREAMFLOW =        5015586.00
     GW BOUNDARY FLOW =                         GW BOUNDARY FLOW =                  

   INFLOWS - OUTFLOWS =        1.1096D+09     INFLOWS - OUTFLOWS =       -5534643.21
             --------                                   --------

 TOTAL STORAGE CHANGE =        1.0525D+09         STORAGE CHANGE =       -5545745.40
       --------------                             --------------
         LAND SURFACE =        5.8455D+08           LAND SURFACE =        -355918.57
            SOIL ZONE =        9164518.02              SOIL ZONE =         -93931.92
     UNSATURATED ZONE =       -1.2438D+07       UNSATURATED ZONE =         -16367.98
       SATURATED ZONE =       -7.5450D+07         SATURATED ZONE =        -143243.44
                LAKES =        5.4671D+08                  LAKES =       -4936283.50

 OVERALL BUDGET ERROR =        5.7032D+07           BUDGET ERROR =          11102.19


  PERCENT DISCREPANCY =              0.96    PERCENT DISCREPANCY =              0.20



1
 SUMMARY VOLUMETRIC BUDGET FOR GSFLOW 
 DATE: 01 24 1984              CUMULATIVE TIME STEP:    1211
 MODFLOW STRESS PERIOD      1     CURRENT TIME STEP:    1211     ITERATIONS:       2

 -----------------------------------------------------------------------------------

   CUMULATIVE VOLUMES               L**3   RATES FOR THIS TIME STEP           L**3/T
   ------------------                      ------------------------

                                     IN                                         IN
                                     --                                         --
        PRECIPITATION =        5.9535D+09          PRECIPITATION =                  
           STREAMFLOW =                               STREAMFLOW =                  
     GW BOUNDARY FLOW =                         GW BOUNDARY FLOW =                  


                                    OUT                                        OUT
                                    ---                                        ---
   EVAPOTRANSPIRATION =        2.9639D+09     EVAPOTRANSPIRATION =        1069182.75
           STREAMFLOW =        1.9143D+09             STREAMFLOW =        4917690.00
     GW BOUNDARY FLOW =                         GW BOUNDARY FLOW =                  

   INFLOWS - OUTFLOWS =        1.0753D+09     INFLOWS - OUTFLOWS =       -5986872.75
             --------                                   --------

 TOTAL STORAGE CHANGE =        1.0181D+09         STORAGE CHANGE =       -6005048.60
       --------------                             --------------
         LAND SURFACE =        5.8597D+08           LAND SURFACE =        -567686.87
            SOIL ZONE =        8672743.44              SOIL ZONE =         -60032.47
     UNSATURATED ZONE =       -1.2637D+07       UNSATURATED ZONE =         -45034.77
       SATURATED ZONE =       -7.6544D+07         SATURATED ZONE =        -161928.00
                LAKES =        5.1268D+08                  LAKES =       -5170366.50

 OVERALL BUDGET ERROR =        5.7133D+07           BUDGET ERROR =          18175.85


  PERCENT DISCREPANCY =              0.96    PERCENT DISCREPANCY =              0.30



