1
 SUMMARY VOLUMETRIC BUDGET FOR GSFLOW 
 DATE: 11 10 1983              CUMULATIVE TIME STEP:    1136
 MODFLOW STRESS PERIOD      1     CURRENT TIME STEP:    1136     ITERATIONS:      14

 -----------------------------------------------------------------------------------

   CUMULATIVE VOLUMES               L**3   RATES FOR THIS TIME STEP           L**3/T
   ------------------                      ------------------------

                                     IN                                         IN
                                     --                                         --
        PRECIPITATION =        1.0338D+08          PRECIPITATION =        8.7230D+07
           STREAMFLOW =                               STREAMFLOW =                  
     GW BOUNDARY FLOW =                         GW BOUNDARY FLOW =                  


                                    OUT                                        OUT
                                    ---                                        ---
   EVAPOTRANSPIRATION =        1.3272D+07     EVAPOTRANSPIRATION =         643655.03
           STREAMFLOW =        1.7081D+07             STREAMFLOW =        2998025.00
     GW BOUNDARY FLOW =                         GW BOUNDARY FLOW =                  

   INFLOWS - OUTFLOWS =        7.3030D+07     INFLOWS - OUTFLOWS =        8.3588D+07
             --------                                   --------

 TOTAL STORAGE CHANGE =        7.2979D+07         STORAGE CHANGE =        8.3247D+07
       --------------                             --------------
         LAND SURFACE =        4.8909D+07           LAND SURFACE =        4.6417D+07
            SOIL ZONE =        5699166.78              SOIL ZONE =        7489853.37
     UNSATURATED ZONE =         386664.15       UNSATURATED ZONE =         194351.08
       SATURATED ZONE =        -545444.75         SATURATED ZONE =         745991.88
                LAKES =        1.8529D+07                  LAKES =        2.8400D+07

 OVERALL BUDGET ERROR =          51549.20           BUDGET ERROR =         341027.50


  PERCENT DISCREPANCY =              0.05    PERCENT DISCREPANCY =              0.39



