1
 SUMMARY VOLUMETRIC BUDGET FOR GSFLOW 
 DATE: 09 15 1983              CUMULATIVE TIME STEP:    1080
 MODFLOW STRESS PERIOD      1     CURRENT TIME STEP:    1080     ITERATIONS:      25

 -----------------------------------------------------------------------------------

   CUMULATIVE VOLUMES               L**3   RATES FOR THIS TIME STEP           L**3/T
   ------------------                      ------------------------

                                     IN                                         IN
                                     --                                         --
        PRECIPITATION =                            PRECIPITATION =                  
           STREAMFLOW =                               STREAMFLOW =                  
     GW BOUNDARY FLOW =                         GW BOUNDARY FLOW =                  


                                    OUT                                        OUT
                                    ---                                        ---
   EVAPOTRANSPIRATION =        1.9511D+07     EVAPOTRANSPIRATION =        2706327.23
           STREAMFLOW =        9774285.25             STREAMFLOW =        1389678.38
     GW BOUNDARY FLOW =                         GW BOUNDARY FLOW =                  

   INFLOWS - OUTFLOWS =       -2.9285D+07     INFLOWS - OUTFLOWS =       -4096005.60
             --------                                   --------

 TOTAL STORAGE CHANGE =       -2.9301D+07         STORAGE CHANGE =       -4090951.58
       --------------                             --------------
         LAND SURFACE =       -1095293.52           LAND SURFACE =        -127800.96
            SOIL ZONE =       -5917232.20              SOIL ZONE =        -754429.44
     UNSATURATED ZONE =        -985593.93       UNSATURATED ZONE =        -144397.55
       SATURATED ZONE =       -1626892.28         SATURATED ZONE =        -234052.38
                LAKES =       -1.9676D+07                  LAKES =       -2830271.25

 OVERALL BUDGET ERROR =          15476.76           BUDGET ERROR =          -5054.02


  PERCENT DISCREPANCY =              0.05    PERCENT DISCREPANCY =             -0.12



