

                           U.S. Geological Survey
         Coupled Groundwater and Surface-water FLOW model (GSFLOW)
                          Version 1.2.0 08/21/2015

     An integration of the Precipitation-Runoff Modeling System (PRMS)
     and the Modular Groundwater Model (MODFLOW-NWT and MODFLOW-2005)



                         U.S. Geological Survey
               Precipitation-Runoff Modeling System (PRMS)
               Version 4.0.1 03/15/2015 Tag: 633 2015-09-11


        Groundwater, streams, lakes and wells simulated by MODFLOW
              Based on MODFLOW-NWT  Version: 1.11.0 08/08/2013
                   and MODFLOW-2005 Version: 1.0.9 07/01/2014
              Processes: GWF and OBS
              Packages:  BAS, BCF, CHD, DE4, FHB, GAG, GHB,
                         HFB, HUF, LAK LPF, MNW1, MNW2, NWT,
                         PCG, GMG, SFR, SIP, UPW, UZF, WEL

The following modules are available:

     Process                   Modules
--------------------------------------------------------------------------
  Basin Definition: basin
    Cascading Flow: cascade
  Time Series Data: obs
   Potet Solar Rad: soltab
  Temperature Dist: temp_1sta, temp_laps, temp_dist2, climate_hru
       Precip Dist: precip_1sta, precip_laps, precip_dist2,
                    climate_hru
Temp & Precip Dist: xyz_dist, ide_dist
    Solar Rad Dist: ccsolrad, ddsolrad, climate_hru
Transpiration Dist: transp_tindex, climate_hru, transp_frost
      Potential ET: potet_hamon, potet_jh, potet_pan, climate_hru,
                    potet_hs, potet_pt, potet_pm
      Interception: intcp
     Snow Dynamics: snowcomp
    Surface Runoff: srunoff_smidx, srunoff_carea
         Soil Zone: soilzone
       Groundwater: gwflow
Streamflow Routing: strmflow, strmflow_in_out, muskingum
    Output Summary: basin_sum, subbasin, map_results, nhru_summary
     Preprocessing: write_climate_hru, frost_date
--------------------------------------------------------------------------
GSFLOW Computation Order     gsflow_prms.f90, version: 7633 2015-09-11 22:17:53Z
Basin Definition             basin.f90, version: 7588 2015-08-18 22:58:42Z
Cascading Flow               cascade.f90, version: 7588 2015-08-18 22:58:42Z
Common States and Fluxes     climateflow.f90, version: 7588 2015-08-18 22:58:42Z
Potential Solar Radiation    soltab.f90, version: 7563 2015-08-04 20:04:22Z
PRMS Set Time Variables      prms_time.f90, version: 7430 2015-06-10 21:09:20Z
Time Series Data             obs.f90, version: 7488 2015-07-16 23:25:44Z
Temperature Distribution     temp_laps.f90, version: 7431 2015-06-10 21:27:42Z
Precipitation Distribution   precip_1sta.f90, version: 7431 2015-06-10 21:27:42Z
Solar Radiation Distribution ddsolrad.f90, version: 7530 2015-07-29 22:33:42Z
Transpiration Distribution   transp_tindex.f90, version: 7117 2015-01-06 00:28:20Z
Potential Evapotranspiration potet_jh.f90, version: 7525 2015-07-28 19:39:43Z
Canopy Interception          intcp.f90, version: 7588 2015-08-18 22:58:42Z
Snow Dynamics                snowcomp.f90, version: 7563 2015-08-04 20:04:22Z
Surface Runoff               srunoff_smidx.f90, version: 7588 2015-08-18 22:58:42Z
Soil Zone Computations       soilzone.f90, version: 7588 2015-08-18 22:58:42Z
GSFLOW PRMS to MODFLOW       gsflow_prms2mf.f90, version: 7562 2015-08-04 20:02:18Z
GSFLOW MODFLOW to PRMS       gsflow_mf2prms.f90, version: 7535 2015-07-29 22:37:29Z
GSFLOW Output Budget Summary gsflow_budget.f90, version: 7508 2015-07-23 22:15:56Z
GSFLOW Output CSV Summary    gsflow_sum.f90, version: 7589 2015-08-19 17:03:25Z
Output Summary               subbasin.f90, version: 7432 2015-06-10 21:50:54Z
GSFLOW MODFLOW main          gsflow_modflow.f, version: 7595 2015-09-01 15:01:38Z
MODFLOW UZF-NWT Package      gwf2uzf1_NWT.f, version: 7578 2015-08-11 15:14:00Z
MODFLOW SFR-NWT Package      gwf2sfr7_NWT.f, version: 7541 2015-07-30 21:46:59Z
MODFLOW LAK-NWT Package      gwf2lak7_NWT.f, version: 7541 2015-07-30 21:46:59Z

$Id: gwf2uzf1_NWT.f 7578 2015-08-11 15:14:00Z rniswon $         
$Id: gwf2sfr7_NWT.f 7541 2015-07-30 21:46:59Z rniswon $         
$Id: gwf2lak7_NWT.f 7541 2015-07-30 21:46:59Z rniswon $         
$Id: gsflow_prms.f90 7633 2015-09-11 22:17:53Z rsregan $                        

Using NAME file: ../input/modflow/tahoe.nam 

Using Solver Package: NWT

Run start date and time (yyyy/mm/dd hh:mm:ss): 2015/09/28 14:56:27

 Percentage difference between cell mapping:   0.0000000000000000     
 Number of active cells:       14634

Simulation time period: 1980/10/01 - 1984/01/30

Using Control File: ./Tahoe.control

Writing PRMS Water Budget File: ../output/prms/tahoe.out

Simulation time period: 1980/10/01 - 1984/01/30

 szconverge =  9.99999997E-07 mxsziter =         200 mnsziter =         200
 Tolerance check for gvr_hru_pct:  5.00000000000000041E-006
 Percent difference between GVR mapping and active model domain:  0.00000000D+00


Water Budget print frequency is:   7


Writing GSFLOW Water Budget File: ../output/gsflow_cont.out

Writing GSFLOW CSV File: ../output/gsflow_cont.csv
Date: 1980/10/01; Stress:  1; Step:     1; Simulation step:    1
                  MF iterations:       49; SZ iterations:     49

Date: 1980/10/02; Stress:  1; Step:     2; Simulation step:    2
                  MF iterations:       11; SZ iterations:     11

Date: 1980/10/03; Stress:  1; Step:     3; Simulation step:    3
                  MF iterations:       19; SZ iterations:     19

Date: 1980/10/04; Stress:  1; Step:     4; Simulation step:    4
                  MF iterations:       14; SZ iterations:     14

Date: 1980/10/05; Stress:  1; Step:     5; Simulation step:    5
                  MF iterations:       12; SZ iterations:     12

Date: 1980/10/06; Stress:  1; Step:     6; Simulation step:    6
                  MF iterations:       10; SZ iterations:     10

Date: 1980/10/07; Stress:  1; Step:     7; Simulation step:    7
                  MF iterations:       12; SZ iterations:     12

Date: 1980/10/08; Stress:  1; Step:     8; Simulation step:    8
                  MF iterations:       14; SZ iterations:     14

Date: 1980/10/09; Stress:  1; Step:     9; Simulation step:    9
                  MF iterations:       13; SZ iterations:     13

Date: 1980/10/10; Stress:  1; Step:    10; Simulation step:   10
                  MF iterations:       12; SZ iterations:     12

Date: 1980/10/11; Stress:  1; Step:    11; Simulation step:   11
                  MF iterations:       11; SZ iterations:     11

Date: 1980/10/12; Stress:  1; Step:    12; Simulation step:   12
                  MF iterations:        8; SZ iterations:      8

Date: 1980/10/13; Stress:  1; Step:    13; Simulation step:   13
                  MF iterations:        4; SZ iterations:      4

Date: 1980/10/14; Stress:  1; Step:    14; Simulation step:   14
                  MF iterations:        3; SZ iterations:      3

Date: 1980/10/15; Stress:  1; Step:    15; Simulation step:   15
                  MF iterations:        5; SZ iterations:      5

Date: 1980/10/16; Stress:  1; Step:    16; Simulation step:   16
                  MF iterations:        4; SZ iterations:      4

Date: 1980/10/17; Stress:  1; Step:    17; Simulation step:   17
                  MF iterations:        3; SZ iterations:      3

Date: 1980/10/18; Stress:  1; Step:    18; Simulation step:   18
                  MF iterations:        5; SZ iterations:      5

Date: 1980/10/19; Stress:  1; Step:    19; Simulation step:   19
                  MF iterations:        3; SZ iterations:      3

Date: 1980/10/20; Stress:  1; Step:    20; Simulation step:   20
                  MF iterations:        5; SZ iterations:      5

Date: 1980/10/21; Stress:  1; Step:    21; Simulation step:   21
                  MF iterations:        5; SZ iterations:      5

Date: 1980/10/22; Stress:  1; Step:    22; Simulation step:   22
                  MF iterations:        5; SZ iterations:      5

Date: 1980/10/23; Stress:  1; Step:    23; Simulation step:   23
                  MF iterations:        6; SZ iterations:      6

Date: 1980/10/24; Stress:  1; Step:    24; Simulation step:   24
                  MF iterations:        5; SZ iterations:      5

Date: 1980/10/25; Stress:  1; Step:    25; Simulation step:   25
                  MF iterations:        2; SZ iterations:      2

Date: 1980/10/26; Stress:  1; Step:    26; Simulation step:   26
                  MF iterations:        2; SZ iterations:      2

Date: 1980/10/27; Stress:  1; Step:    27; Simulation step:   27
                  MF iterations:        2; SZ iterations:      2

Date: 1980/10/28; Stress:  1; Step:    28; Simulation step:   28
                  MF iterations:        4; SZ iterations:      4

Date: 1980/10/29; Stress:  1; Step:    29; Simulation step:   29
                  MF iterations:        9; SZ iterations:      9

Date: 1980/10/30; Stress:  1; Step:    30; Simulation step:   30
                  MF iterations:        3; SZ iterations:      3

Date: 1980/10/31; Stress:  1; Step:    31; Simulation step:   31
                  MF iterations:        3; SZ iterations:      3

Date: 1980/11/01; Stress:  1; Step:    32; Simulation step:   32
                  MF iterations:        6; SZ iterations:      6

Date: 1980/11/02; Stress:  1; Step:    33; Simulation step:   33
                  MF iterations:        7; SZ iterations:      7

Date: 1980/11/03; Stress:  1; Step:    34; Simulation step:   34
                  MF iterations:        4; SZ iterations:      4

Date: 1980/11/04; Stress:  1; Step:    35; Simulation step:   35
                  MF iterations:        6; SZ iterations:      6

Date: 1980/11/05; Stress:  1; Step:    36; Simulation step:   36
                  MF iterations:        7; SZ iterations:      7

Date: 1980/11/06; Stress:  1; Step:    37; Simulation step:   37
                  MF iterations:       15; SZ iterations:     15

Date: 1980/11/07; Stress:  1; Step:    38; Simulation step:   38
                  MF iterations:        5; SZ iterations:      5

Date: 1980/11/08; Stress:  1; Step:    39; Simulation step:   39
                  MF iterations:        4; SZ iterations:      4

Date: 1980/11/09; Stress:  1; Step:    40; Simulation step:   40
                  MF iterations:        5; SZ iterations:      5

Date: 1980/11/10; Stress:  1; Step:    41; Simulation step:   41
                  MF iterations:        5; SZ iterations:      5

Date: 1980/11/11; Stress:  1; Step:    42; Simulation step:   42
                  MF iterations:        5; SZ iterations:      5

Date: 1980/11/12; Stress:  1; Step:    43; Simulation step:   43
                  MF iterations:        6; SZ iterations:      6

Date: 1980/11/13; Stress:  1; Step:    44; Simulation step:   44
                  MF iterations:        3; SZ iterations:      3

Date: 1980/11/14; Stress:  1; Step:    45; Simulation step:   45
                  MF iterations:        4; SZ iterations:      4

Date: 1980/11/15; Stress:  1; Step:    46; Simulation step:   46
                  MF iterations:        3; SZ iterations:      3

Date: 1980/11/16; Stress:  1; Step:    47; Simulation step:   47
                  MF iterations:        6; SZ iterations:      6

Date: 1980/11/17; Stress:  1; Step:    48; Simulation step:   48
                  MF iterations:        3; SZ iterations:      3

Date: 1980/11/18; Stress:  1; Step:    49; Simulation step:   49
                  MF iterations:        3; SZ iterations:      3

Date: 1980/11/19; Stress:  1; Step:    50; Simulation step:   50
                  MF iterations:        3; SZ iterations:      3

Date: 1980/11/20; Stress:  1; Step:    51; Simulation step:   51
                  MF iterations:        3; SZ iterations:      3

Date: 1980/11/21; Stress:  1; Step:    52; Simulation step:   52
                  MF iterations:        3; SZ iterations:      3

Date: 1980/11/22; Stress:  1; Step:    53; Simulation step:   53
                  MF iterations:        6; SZ iterations:      6

Date: 1980/11/23; Stress:  1; Step:    54; Simulation step:   54
                  MF iterations:        3; SZ iterations:      3

Date: 1980/11/24; Stress:  1; Step:    55; Simulation step:   55
                  MF iterations:        4; SZ iterations:      4

Date: 1980/11/25; Stress:  1; Step:    56; Simulation step:   56
                  MF iterations:        3; SZ iterations:      3

Date: 1980/11/26; Stress:  1; Step:    57; Simulation step:   57
                  MF iterations:        5; SZ iterations:      5

Date: 1980/11/27; Stress:  1; Step:    58; Simulation step:   58
                  MF iterations:        3; SZ iterations:      3

Date: 1980/11/28; Stress:  1; Step:    59; Simulation step:   59
                  MF iterations:        4; SZ iterations:      4

Date: 1980/11/29; Stress:  1; Step:    60; Simulation step:   60
                  MF iterations:        3; SZ iterations:      3

Date: 1980/11/30; Stress:  1; Step:    61; Simulation step:   61
                  MF iterations:        3; SZ iterations:      3

Date: 1980/12/01; Stress:  1; Step:    62; Simulation step:   62
                  MF iterations:        3; SZ iterations:      3

Date: 1980/12/02; Stress:  1; Step:    63; Simulation step:   63
                  MF iterations:        4; SZ iterations:      4

Date: 1980/12/03; Stress:  1; Step:    64; Simulation step:   64
                  MF iterations:        4; SZ iterations:      4

Date: 1980/12/04; Stress:  1; Step:    65; Simulation step:   65
                  MF iterations:        5; SZ iterations:      5

Date: 1980/12/05; Stress:  1; Step:    66; Simulation step:   66
                  MF iterations:        7; SZ iterations:      7

Date: 1980/12/06; Stress:  1; Step:    67; Simulation step:   67
                  MF iterations:        8; SZ iterations:      8

Date: 1980/12/07; Stress:  1; Step:    68; Simulation step:   68
                  MF iterations:       10; SZ iterations:     10

Date: 1980/12/08; Stress:  1; Step:    69; Simulation step:   69
                  MF iterations:        3; SZ iterations:      3

Date: 1980/12/09; Stress:  1; Step:    70; Simulation step:   70
                  MF iterations:       28; SZ iterations:     28

Date: 1980/12/10; Stress:  1; Step:    71; Simulation step:   71
                  MF iterations:        2; SZ iterations:      2

Date: 1980/12/11; Stress:  1; Step:    72; Simulation step:   72
                  MF iterations:        2; SZ iterations:      2

Date: 1980/12/12; Stress:  1; Step:    73; Simulation step:   73
                  MF iterations:        2; SZ iterations:      2

Date: 1980/12/13; Stress:  1; Step:    74; Simulation step:   74
                  MF iterations:        2; SZ iterations:      2

Date: 1980/12/14; Stress:  1; Step:    75; Simulation step:   75
                  MF iterations:        2; SZ iterations:      2

Date: 1980/12/15; Stress:  1; Step:    76; Simulation step:   76
                  MF iterations:        3; SZ iterations:      3

Date: 1980/12/16; Stress:  1; Step:    77; Simulation step:   77
                  MF iterations:        4; SZ iterations:      4

Date: 1980/12/17; Stress:  1; Step:    78; Simulation step:   78
                  MF iterations:       31; SZ iterations:     31

Date: 1980/12/18; Stress:  1; Step:    79; Simulation step:   79
                  MF iterations:       20; SZ iterations:     20

Date: 1980/12/19; Stress:  1; Step:    80; Simulation step:   80
                  MF iterations:        3; SZ iterations:      3

Date: 1980/12/20; Stress:  1; Step:    81; Simulation step:   81
                  MF iterations:        8; SZ iterations:      8

Date: 1980/12/21; Stress:  1; Step:    82; Simulation step:   82
                  MF iterations:        5; SZ iterations:      5

Date: 1980/12/22; Stress:  1; Step:    83; Simulation step:   83
                  MF iterations:        3; SZ iterations:      3

Date: 1980/12/23; Stress:  1; Step:    84; Simulation step:   84
                  MF iterations:        3; SZ iterations:      3

Date: 1980/12/24; Stress:  1; Step:    85; Simulation step:   85
                  MF iterations:        4; SZ iterations:      4

Date: 1980/12/25; Stress:  1; Step:    86; Simulation step:   86
                  MF iterations:        3; SZ iterations:      3

Date: 1980/12/26; Stress:  1; Step:    87; Simulation step:   87
                  MF iterations:        3; SZ iterations:      3

Date: 1980/12/27; Stress:  1; Step:    88; Simulation step:   88
                  MF iterations:        4; SZ iterations:      4

Date: 1980/12/28; Stress:  1; Step:    89; Simulation step:   89
                  MF iterations:        3; SZ iterations:      3

Date: 1980/12/29; Stress:  1; Step:    90; Simulation step:   90
                  MF iterations:       13; SZ iterations:     13

Date: 1980/12/30; Stress:  1; Step:    91; Simulation step:   91
                  MF iterations:        4; SZ iterations:      4

Date: 1980/12/31; Stress:  1; Step:    92; Simulation step:   92
                  MF iterations:        4; SZ iterations:      4

Date: 1981/01/01; Stress:  1; Step:    93; Simulation step:   93
                  MF iterations:       46; SZ iterations:     46

Date: 1981/01/02; Stress:  1; Step:    94; Simulation step:   94
                  MF iterations:       44; SZ iterations:     44

Date: 1981/01/03; Stress:  1; Step:    95; Simulation step:   95
                  MF iterations:        4; SZ iterations:      4

Date: 1981/01/04; Stress:  1; Step:    96; Simulation step:   96
                  MF iterations:        3; SZ iterations:      3

Date: 1981/01/05; Stress:  1; Step:    97; Simulation step:   97
                  MF iterations:        9; SZ iterations:      9

Date: 1981/01/06; Stress:  1; Step:    98; Simulation step:   98
                  MF iterations:       14; SZ iterations:     14

Date: 1981/01/07; Stress:  1; Step:    99; Simulation step:   99
                  MF iterations:        7; SZ iterations:      7

Date: 1981/01/08; Stress:  1; Step:   100; Simulation step:  100
                  MF iterations:       27; SZ iterations:     27

Date: 1981/01/09; Stress:  1; Step:   101; Simulation step:  101
                  MF iterations:        7; SZ iterations:      7

Date: 1981/01/10; Stress:  1; Step:   102; Simulation step:  102
                  MF iterations:       24; SZ iterations:     24

Date: 1981/01/11; Stress:  1; Step:   103; Simulation step:  103
                  MF iterations:        6; SZ iterations:      6

Date: 1981/01/12; Stress:  1; Step:   104; Simulation step:  104
                  MF iterations:        6; SZ iterations:      6

Date: 1981/01/13; Stress:  1; Step:   105; Simulation step:  105
                  MF iterations:       30; SZ iterations:     30

Date: 1981/01/14; Stress:  1; Step:   106; Simulation step:  106
                  MF iterations:        5; SZ iterations:      5

Date: 1981/01/15; Stress:  1; Step:   107; Simulation step:  107
                  MF iterations:       11; SZ iterations:     11

Date: 1981/01/16; Stress:  1; Step:   108; Simulation step:  108
                  MF iterations:        6; SZ iterations:      6

Date: 1981/01/17; Stress:  1; Step:   109; Simulation step:  109
                  MF iterations:        6; SZ iterations:      6

Date: 1981/01/18; Stress:  1; Step:   110; Simulation step:  110
                  MF iterations:       19; SZ iterations:     19

Date: 1981/01/19; Stress:  1; Step:   111; Simulation step:  111
                  MF iterations:        8; SZ iterations:      8

Date: 1981/01/20; Stress:  1; Step:   112; Simulation step:  112
                  MF iterations:       12; SZ iterations:     12

Date: 1981/01/21; Stress:  1; Step:   113; Simulation step:  113
                  MF iterations:        5; SZ iterations:      5

Date: 1981/01/22; Stress:  1; Step:   114; Simulation step:  114
                  MF iterations:        7; SZ iterations:      7

Date: 1981/01/23; Stress:  1; Step:   115; Simulation step:  115
                  MF iterations:       13; SZ iterations:     13

Date: 1981/01/24; Stress:  1; Step:   116; Simulation step:  116
                  MF iterations:        4; SZ iterations:      4

Date: 1981/01/25; Stress:  1; Step:   117; Simulation step:  117
                  MF iterations:       13; SZ iterations:     13

Date: 1981/01/26; Stress:  1; Step:   118; Simulation step:  118
                  MF iterations:        9; SZ iterations:      9

Date: 1981/01/27; Stress:  1; Step:   119; Simulation step:  119
                  MF iterations:        3; SZ iterations:      3

Date: 1981/01/28; Stress:  1; Step:   120; Simulation step:  120
                  MF iterations:       19; SZ iterations:     19

Date: 1981/01/29; Stress:  1; Step:   121; Simulation step:  121
                  MF iterations:       13; SZ iterations:     13

Date: 1981/01/30; Stress:  1; Step:   122; Simulation step:  122
                  MF iterations:       32; SZ iterations:     32

Date: 1981/01/31; Stress:  1; Step:   123; Simulation step:  123
                  MF iterations:       20; SZ iterations:     20

Date: 1981/02/01; Stress:  1; Step:   124; Simulation step:  124
                  MF iterations:       40; SZ iterations:     40

Date: 1981/02/02; Stress:  1; Step:   125; Simulation step:  125
                  MF iterations:       22; SZ iterations:     22

Date: 1981/02/03; Stress:  1; Step:   126; Simulation step:  126
                  MF iterations:       33; SZ iterations:     33

Date: 1981/02/04; Stress:  1; Step:   127; Simulation step:  127
                  MF iterations:        3; SZ iterations:      3

Date: 1981/02/05; Stress:  1; Step:   128; Simulation step:  128
                  MF iterations:       34; SZ iterations:     34

Date: 1981/02/06; Stress:  1; Step:   129; Simulation step:  129
                  MF iterations:        9; SZ iterations:      9

Date: 1981/02/07; Stress:  1; Step:   130; Simulation step:  130
                  MF iterations:       18; SZ iterations:     18

Date: 1981/02/08; Stress:  1; Step:   131; Simulation step:  131
                  MF iterations:        2; SZ iterations:      2

Date: 1981/02/09; Stress:  1; Step:   132; Simulation step:  132
                  MF iterations:       24; SZ iterations:     24

Date: 1981/02/10; Stress:  1; Step:   133; Simulation step:  133
                  MF iterations:        3; SZ iterations:      3

Date: 1981/02/11; Stress:  1; Step:   134; Simulation step:  134
                  MF iterations:       32; SZ iterations:     32

Date: 1981/02/12; Stress:  1; Step:   135; Simulation step:  135
                  MF iterations:        3; SZ iterations:      3

Date: 1981/02/13; Stress:  1; Step:   136; Simulation step:  136
                  MF iterations:        4; SZ iterations:      4

Date: 1981/02/14; Stress:  1; Step:   137; Simulation step:  137
                  MF iterations:        3; SZ iterations:      3

Date: 1981/02/15; Stress:  1; Step:   138; Simulation step:  138
                  MF iterations:       19; SZ iterations:     19

Date: 1981/02/16; Stress:  1; Step:   139; Simulation step:  139
                  MF iterations:        7; SZ iterations:      7

Date: 1981/02/17; Stress:  1; Step:   140; Simulation step:  140
                  MF iterations:       26; SZ iterations:     26

Date: 1981/02/18; Stress:  1; Step:   141; Simulation step:  141
                  MF iterations:       93; SZ iterations:     93

Date: 1981/02/19; Stress:  1; Step:   142; Simulation step:  142
                  MF iterations:       30; SZ iterations:     30

Date: 1981/02/20; Stress:  1; Step:   143; Simulation step:  143
                  MF iterations:        5; SZ iterations:      5

Date: 1981/02/21; Stress:  1; Step:   144; Simulation step:  144
                  MF iterations:       10; SZ iterations:     10

Date: 1981/02/22; Stress:  1; Step:   145; Simulation step:  145
                  MF iterations:        8; SZ iterations:      8

Date: 1981/02/23; Stress:  1; Step:   146; Simulation step:  146
                  MF iterations:       25; SZ iterations:     25

Date: 1981/02/24; Stress:  1; Step:   147; Simulation step:  147
                  MF iterations:       16; SZ iterations:     16

Date: 1981/02/25; Stress:  1; Step:   148; Simulation step:  148
                  MF iterations:       16; SZ iterations:     16

Date: 1981/02/26; Stress:  1; Step:   149; Simulation step:  149
                  MF iterations:       13; SZ iterations:     13

Date: 1981/02/27; Stress:  1; Step:   150; Simulation step:  150
                  MF iterations:       11; SZ iterations:     11

Date: 1981/02/28; Stress:  1; Step:   151; Simulation step:  151
                  MF iterations:       19; SZ iterations:     19

Date: 1981/03/01; Stress:  1; Step:   152; Simulation step:  152
                  MF iterations:        5; SZ iterations:      5

Date: 1981/03/02; Stress:  1; Step:   153; Simulation step:  153
                  MF iterations:       21; SZ iterations:     21

Date: 1981/03/03; Stress:  1; Step:   154; Simulation step:  154
                  MF iterations:       21; SZ iterations:     21

Date: 1981/03/04; Stress:  1; Step:   155; Simulation step:  155
                  MF iterations:       16; SZ iterations:     16

Date: 1981/03/05; Stress:  1; Step:   156; Simulation step:  156
                  MF iterations:       51; SZ iterations:     51

Date: 1981/03/06; Stress:  1; Step:   157; Simulation step:  157
                  MF iterations:       18; SZ iterations:     18

Date: 1981/03/07; Stress:  1; Step:   158; Simulation step:  158
                  MF iterations:       59; SZ iterations:     59

Date: 1981/03/08; Stress:  1; Step:   159; Simulation step:  159
                  MF iterations:        4; SZ iterations:      4

Date: 1981/03/09; Stress:  1; Step:   160; Simulation step:  160
                  MF iterations:       16; SZ iterations:     16

Date: 1981/03/10; Stress:  1; Step:   161; Simulation step:  161
                  MF iterations:       27; SZ iterations:     27

Date: 1981/03/11; Stress:  1; Step:   162; Simulation step:  162
                  MF iterations:        8; SZ iterations:      8

Date: 1981/03/12; Stress:  1; Step:   163; Simulation step:  163
                  MF iterations:       28; SZ iterations:     28

Date: 1981/03/13; Stress:  1; Step:   164; Simulation step:  164
                  MF iterations:       35; SZ iterations:     35

Date: 1981/03/14; Stress:  1; Step:   165; Simulation step:  165
                  MF iterations:       41; SZ iterations:     41

Date: 1981/03/15; Stress:  1; Step:   166; Simulation step:  166
                  MF iterations:        5; SZ iterations:      5

Date: 1981/03/16; Stress:  1; Step:   167; Simulation step:  167
                  MF iterations:       10; SZ iterations:     10

Date: 1981/03/17; Stress:  1; Step:   168; Simulation step:  168
                  MF iterations:       37; SZ iterations:     37

Date: 1981/03/18; Stress:  1; Step:   169; Simulation step:  169
                  MF iterations:        4; SZ iterations:      4

Date: 1981/03/19; Stress:  1; Step:   170; Simulation step:  170
                  MF iterations:       32; SZ iterations:     32

Date: 1981/03/20; Stress:  1; Step:   171; Simulation step:  171
                  MF iterations:       20; SZ iterations:     20

Date: 1981/03/21; Stress:  1; Step:   172; Simulation step:  172
                  MF iterations:       57; SZ iterations:     57

Date: 1981/03/22; Stress:  1; Step:   173; Simulation step:  173
                  MF iterations:        4; SZ iterations:      4

Date: 1981/03/23; Stress:  1; Step:   174; Simulation step:  174
                  MF iterations:        5; SZ iterations:      5

Date: 1981/03/24; Stress:  1; Step:   175; Simulation step:  175
                  MF iterations:       41; SZ iterations:     41

Date: 1981/03/25; Stress:  1; Step:   176; Simulation step:  176
                  MF iterations:       32; SZ iterations:     32

Date: 1981/03/26; Stress:  1; Step:   177; Simulation step:  177
                  MF iterations:       10; SZ iterations:     10

Date: 1981/03/27; Stress:  1; Step:   178; Simulation step:  178
                  MF iterations:       23; SZ iterations:     23

Date: 1981/03/28; Stress:  1; Step:   179; Simulation step:  179
                  MF iterations:      130; SZ iterations:    130

Date: 1981/03/29; Stress:  1; Step:   180; Simulation step:  180
                  MF iterations:       59; SZ iterations:     59

Date: 1981/03/30; Stress:  1; Step:   181; Simulation step:  181
                  MF iterations:       23; SZ iterations:     23

Date: 1981/03/31; Stress:  1; Step:   182; Simulation step:  182
                  MF iterations:       33; SZ iterations:     33

Date: 1981/04/01; Stress:  1; Step:   183; Simulation step:  183
                  MF iterations:        3; SZ iterations:      3

Date: 1981/04/02; Stress:  1; Step:   184; Simulation step:  184
                  MF iterations:        7; SZ iterations:      7

Date: 1981/04/03; Stress:  1; Step:   185; Simulation step:  185
                  MF iterations:       54; SZ iterations:     54

Date: 1981/04/04; Stress:  1; Step:   186; Simulation step:  186
                  MF iterations:       44; SZ iterations:     44

Date: 1981/04/05; Stress:  1; Step:   187; Simulation step:  187
                  MF iterations:       30; SZ iterations:     30

Date: 1981/04/06; Stress:  1; Step:   188; Simulation step:  188
                  MF iterations:       14; SZ iterations:     14

Date: 1981/04/07; Stress:  1; Step:   189; Simulation step:  189
                  MF iterations:       30; SZ iterations:     30

Date: 1981/04/08; Stress:  1; Step:   190; Simulation step:  190
                  MF iterations:       29; SZ iterations:     29

Date: 1981/04/09; Stress:  1; Step:   191; Simulation step:  191
                  MF iterations:       45; SZ iterations:     45

Date: 1981/04/10; Stress:  1; Step:   192; Simulation step:  192
                  MF iterations:       34; SZ iterations:     34

Date: 1981/04/11; Stress:  1; Step:   193; Simulation step:  193
                  MF iterations:        8; SZ iterations:      8

Date: 1981/04/12; Stress:  1; Step:   194; Simulation step:  194
                  MF iterations:       75; SZ iterations:     75

Date: 1981/04/13; Stress:  1; Step:   195; Simulation step:  195
                  MF iterations:       15; SZ iterations:     15

Date: 1981/04/14; Stress:  1; Step:   196; Simulation step:  196
                  MF iterations:       33; SZ iterations:     33

Date: 1981/04/15; Stress:  1; Step:   197; Simulation step:  197
                  MF iterations:       21; SZ iterations:     21

Date: 1981/04/16; Stress:  1; Step:   198; Simulation step:  198
                  MF iterations:       39; SZ iterations:     39

Date: 1981/04/17; Stress:  1; Step:   199; Simulation step:  199
                  MF iterations:       43; SZ iterations:     43

Date: 1981/04/18; Stress:  1; Step:   200; Simulation step:  200
                  MF iterations:       69; SZ iterations:     69

Date: 1981/04/19; Stress:  1; Step:   201; Simulation step:  201
                  MF iterations:       27; SZ iterations:     27

Date: 1981/04/20; Stress:  1; Step:   202; Simulation step:  202
                  MF iterations:       40; SZ iterations:     40

Date: 1981/04/21; Stress:  1; Step:   203; Simulation step:  203
                  MF iterations:       52; SZ iterations:     52

Date: 1981/04/22; Stress:  1; Step:   204; Simulation step:  204
                  MF iterations:       49; SZ iterations:     49

Date: 1981/04/23; Stress:  1; Step:   205; Simulation step:  205
                  MF iterations:       27; SZ iterations:     27

Date: 1981/04/24; Stress:  1; Step:   206; Simulation step:  206
                  MF iterations:       28; SZ iterations:     28

Date: 1981/04/25; Stress:  1; Step:   207; Simulation step:  207
                  MF iterations:       33; SZ iterations:     33

Date: 1981/04/26; Stress:  1; Step:   208; Simulation step:  208
                  MF iterations:       34; SZ iterations:     34

Date: 1981/04/27; Stress:  1; Step:   209; Simulation step:  209
                  MF iterations:       42; SZ iterations:     42

Date: 1981/04/28; Stress:  1; Step:   210; Simulation step:  210
                  MF iterations:       11; SZ iterations:     11

Date: 1981/04/29; Stress:  1; Step:   211; Simulation step:  211
                  MF iterations:       43; SZ iterations:     43

Date: 1981/04/30; Stress:  1; Step:   212; Simulation step:  212
                  MF iterations:       41; SZ iterations:     41

Date: 1981/05/01; Stress:  1; Step:   213; Simulation step:  213
                  MF iterations:       48; SZ iterations:     48

Date: 1981/05/02; Stress:  1; Step:   214; Simulation step:  214
                  MF iterations:       41; SZ iterations:     41

Date: 1981/05/03; Stress:  1; Step:   215; Simulation step:  215
                  MF iterations:       36; SZ iterations:     36

Date: 1981/05/04; Stress:  1; Step:   216; Simulation step:  216
                  MF iterations:       39; SZ iterations:     39

Date: 1981/05/05; Stress:  1; Step:   217; Simulation step:  217
                  MF iterations:       37; SZ iterations:     37

Date: 1981/05/06; Stress:  1; Step:   218; Simulation step:  218
                  MF iterations:        6; SZ iterations:      6

Date: 1981/05/07; Stress:  1; Step:   219; Simulation step:  219
                  MF iterations:       76; SZ iterations:     76

Date: 1981/05/08; Stress:  1; Step:   220; Simulation step:  220
                  MF iterations:       53; SZ iterations:     53

Date: 1981/05/09; Stress:  1; Step:   221; Simulation step:  221
                  MF iterations:       25; SZ iterations:     25

Date: 1981/05/10; Stress:  1; Step:   222; Simulation step:  222
                  MF iterations:       68; SZ iterations:     68

Date: 1981/05/11; Stress:  1; Step:   223; Simulation step:  223
                  MF iterations:       39; SZ iterations:     39

Date: 1981/05/12; Stress:  1; Step:   224; Simulation step:  224
                  MF iterations:       65; SZ iterations:     65

Date: 1981/05/13; Stress:  1; Step:   225; Simulation step:  225
                  MF iterations:       36; SZ iterations:     36

Date: 1981/05/14; Stress:  1; Step:   226; Simulation step:  226
                  MF iterations:       43; SZ iterations:     43

Date: 1981/05/15; Stress:  1; Step:   227; Simulation step:  227
                  MF iterations:       64; SZ iterations:     64

Date: 1981/05/16; Stress:  1; Step:   228; Simulation step:  228
                  MF iterations:       57; SZ iterations:     57

Date: 1981/05/17; Stress:  1; Step:   229; Simulation step:  229
                  MF iterations:       48; SZ iterations:     48

Date: 1981/05/18; Stress:  1; Step:   230; Simulation step:  230
                  MF iterations:        5; SZ iterations:      5

Date: 1981/05/19; Stress:  1; Step:   231; Simulation step:  231
                  MF iterations:       33; SZ iterations:     33

Date: 1981/05/20; Stress:  1; Step:   232; Simulation step:  232
                  MF iterations:       45; SZ iterations:     45

Date: 1981/05/21; Stress:  1; Step:   233; Simulation step:  233
                  MF iterations:       60; SZ iterations:     60

Date: 1981/05/22; Stress:  1; Step:   234; Simulation step:  234
                  MF iterations:        8; SZ iterations:      8

Date: 1981/05/23; Stress:  1; Step:   235; Simulation step:  235
                  MF iterations:       41; SZ iterations:     41

Date: 1981/05/24; Stress:  1; Step:   236; Simulation step:  236
                  MF iterations:       87; SZ iterations:     87

Date: 1981/05/25; Stress:  1; Step:   237; Simulation step:  237
                  MF iterations:       48; SZ iterations:     48

Date: 1981/05/26; Stress:  1; Step:   238; Simulation step:  238
                  MF iterations:       49; SZ iterations:     49

Date: 1981/05/27; Stress:  1; Step:   239; Simulation step:  239
                  MF iterations:       44; SZ iterations:     44

Date: 1981/05/28; Stress:  1; Step:   240; Simulation step:  240
                  MF iterations:       53; SZ iterations:     53

Date: 1981/05/29; Stress:  1; Step:   241; Simulation step:  241
                  MF iterations:       37; SZ iterations:     37

Date: 1981/05/30; Stress:  1; Step:   242; Simulation step:  242
                  MF iterations:       37; SZ iterations:     37

Date: 1981/05/31; Stress:  1; Step:   243; Simulation step:  243
                  MF iterations:      112; SZ iterations:    112

Date: 1981/06/01; Stress:  1; Step:   244; Simulation step:  244
                  MF iterations:       27; SZ iterations:     27

Date: 1981/06/02; Stress:  1; Step:   245; Simulation step:  245
                  MF iterations:       61; SZ iterations:     61

Date: 1981/06/03; Stress:  1; Step:   246; Simulation step:  246
                  MF iterations:       53; SZ iterations:     53

Date: 1981/06/04; Stress:  1; Step:   247; Simulation step:  247
                  MF iterations:       61; SZ iterations:     61

Date: 1981/06/05; Stress:  1; Step:   248; Simulation step:  248
                  MF iterations:       37; SZ iterations:     37

Date: 1981/06/06; Stress:  1; Step:   249; Simulation step:  249
                  MF iterations:       43; SZ iterations:     43

Date: 1981/06/07; Stress:  1; Step:   250; Simulation step:  250
                  MF iterations:       39; SZ iterations:     39

Date: 1981/06/08; Stress:  1; Step:   251; Simulation step:  251
                  MF iterations:       54; SZ iterations:     54

Date: 1981/06/09; Stress:  1; Step:   252; Simulation step:  252
                  MF iterations:       30; SZ iterations:     30

Date: 1981/06/10; Stress:  1; Step:   253; Simulation step:  253
                  MF iterations:       19; SZ iterations:     19

Date: 1981/06/11; Stress:  1; Step:   254; Simulation step:  254
                  MF iterations:       34; SZ iterations:     34

Date: 1981/06/12; Stress:  1; Step:   255; Simulation step:  255
                  MF iterations:       14; SZ iterations:     14

Date: 1981/06/13; Stress:  1; Step:   256; Simulation step:  256
                  MF iterations:       53; SZ iterations:     53

Date: 1981/06/14; Stress:  1; Step:   257; Simulation step:  257
                  MF iterations:       19; SZ iterations:     19

Date: 1981/06/15; Stress:  1; Step:   258; Simulation step:  258
                  MF iterations:       44; SZ iterations:     44

Date: 1981/06/16; Stress:  1; Step:   259; Simulation step:  259
                  MF iterations:       35; SZ iterations:     35

Date: 1981/06/17; Stress:  1; Step:   260; Simulation step:  260
                  MF iterations:       34; SZ iterations:     34

Date: 1981/06/18; Stress:  1; Step:   261; Simulation step:  261
                  MF iterations:       14; SZ iterations:     14

Date: 1981/06/19; Stress:  1; Step:   262; Simulation step:  262
                  MF iterations:      103; SZ iterations:    103

Date: 1981/06/20; Stress:  1; Step:   263; Simulation step:  263
                  MF iterations:       37; SZ iterations:     37

Date: 1981/06/21; Stress:  1; Step:   264; Simulation step:  264
                  MF iterations:       48; SZ iterations:     48

Date: 1981/06/22; Stress:  1; Step:   265; Simulation step:  265
                  MF iterations:       35; SZ iterations:     35

Date: 1981/06/23; Stress:  1; Step:   266; Simulation step:  266
                  MF iterations:       41; SZ iterations:     41

Date: 1981/06/24; Stress:  1; Step:   267; Simulation step:  267
                  MF iterations:       37; SZ iterations:     37

Date: 1981/06/25; Stress:  1; Step:   268; Simulation step:  268
                  MF iterations:       23; SZ iterations:     23

Date: 1981/06/26; Stress:  1; Step:   269; Simulation step:  269
                  MF iterations:       35; SZ iterations:     35

Date: 1981/06/27; Stress:  1; Step:   270; Simulation step:  270
                  MF iterations:       42; SZ iterations:     42

Date: 1981/06/28; Stress:  1; Step:   271; Simulation step:  271
                  MF iterations:       52; SZ iterations:     52

Date: 1981/06/29; Stress:  1; Step:   272; Simulation step:  272
                  MF iterations:       50; SZ iterations:     50

Date: 1981/06/30; Stress:  1; Step:   273; Simulation step:  273
                  MF iterations:       59; SZ iterations:     59

Date: 1981/07/01; Stress:  1; Step:   274; Simulation step:  274
                  MF iterations:       52; SZ iterations:     52

Date: 1981/07/02; Stress:  1; Step:   275; Simulation step:  275
                  MF iterations:       37; SZ iterations:     37

Date: 1981/07/03; Stress:  1; Step:   276; Simulation step:  276
                  MF iterations:       35; SZ iterations:     35

Date: 1981/07/04; Stress:  1; Step:   277; Simulation step:  277
                  MF iterations:       31; SZ iterations:     31

Date: 1981/07/05; Stress:  1; Step:   278; Simulation step:  278
                  MF iterations:       33; SZ iterations:     33

Date: 1981/07/06; Stress:  1; Step:   279; Simulation step:  279
                  MF iterations:       22; SZ iterations:     22

Date: 1981/07/07; Stress:  1; Step:   280; Simulation step:  280
                  MF iterations:       22; SZ iterations:     22

Date: 1981/07/08; Stress:  1; Step:   281; Simulation step:  281
                  MF iterations:       29; SZ iterations:     29

Date: 1981/07/09; Stress:  1; Step:   282; Simulation step:  282
                  MF iterations:       32; SZ iterations:     32

Date: 1981/07/10; Stress:  1; Step:   283; Simulation step:  283
                  MF iterations:       44; SZ iterations:     44

Date: 1981/07/11; Stress:  1; Step:   284; Simulation step:  284
                  MF iterations:       35; SZ iterations:     35

Date: 1981/07/12; Stress:  1; Step:   285; Simulation step:  285
                  MF iterations:       33; SZ iterations:     33

Date: 1981/07/13; Stress:  1; Step:   286; Simulation step:  286
                  MF iterations:       13; SZ iterations:     13

Date: 1981/07/14; Stress:  1; Step:   287; Simulation step:  287
                  MF iterations:       48; SZ iterations:     48

Date: 1981/07/15; Stress:  1; Step:   288; Simulation step:  288
                  MF iterations:       35; SZ iterations:     35

Date: 1981/07/16; Stress:  1; Step:   289; Simulation step:  289
                  MF iterations:       48; SZ iterations:     48

Date: 1981/07/17; Stress:  1; Step:   290; Simulation step:  290
                  MF iterations:       35; SZ iterations:     35

Date: 1981/07/18; Stress:  1; Step:   291; Simulation step:  291
                  MF iterations:       35; SZ iterations:     35

Date: 1981/07/19; Stress:  1; Step:   292; Simulation step:  292
                  MF iterations:       58; SZ iterations:     58

Date: 1981/07/20; Stress:  1; Step:   293; Simulation step:  293
                  MF iterations:       52; SZ iterations:     52

Date: 1981/07/21; Stress:  1; Step:   294; Simulation step:  294
                  MF iterations:       29; SZ iterations:     29

Date: 1981/07/22; Stress:  1; Step:   295; Simulation step:  295
                  MF iterations:       53; SZ iterations:     53

Date: 1981/07/23; Stress:  1; Step:   296; Simulation step:  296
                  MF iterations:       33; SZ iterations:     33

Date: 1981/07/24; Stress:  1; Step:   297; Simulation step:  297
                  MF iterations:       55; SZ iterations:     55

Date: 1981/07/25; Stress:  1; Step:   298; Simulation step:  298
                  MF iterations:       35; SZ iterations:     35

Date: 1981/07/26; Stress:  1; Step:   299; Simulation step:  299
                  MF iterations:       43; SZ iterations:     43

Date: 1981/07/27; Stress:  1; Step:   300; Simulation step:  300
                  MF iterations:       50; SZ iterations:     50

Date: 1981/07/28; Stress:  1; Step:   301; Simulation step:  301
                  MF iterations:       27; SZ iterations:     27

Date: 1981/07/29; Stress:  1; Step:   302; Simulation step:  302
                  MF iterations:       52; SZ iterations:     52

Date: 1981/07/30; Stress:  1; Step:   303; Simulation step:  303
                  MF iterations:       35; SZ iterations:     35

Date: 1981/07/31; Stress:  1; Step:   304; Simulation step:  304
                  MF iterations:       33; SZ iterations:     33

Date: 1981/08/01; Stress:  1; Step:   305; Simulation step:  305
                  MF iterations:       35; SZ iterations:     35

Date: 1981/08/02; Stress:  1; Step:   306; Simulation step:  306
                  MF iterations:       35; SZ iterations:     35

Date: 1981/08/03; Stress:  1; Step:   307; Simulation step:  307
                  MF iterations:       43; SZ iterations:     43

Date: 1981/08/04; Stress:  1; Step:   308; Simulation step:  308
                  MF iterations:       37; SZ iterations:     37

Date: 1981/08/05; Stress:  1; Step:   309; Simulation step:  309
                  MF iterations:       37; SZ iterations:     37

Date: 1981/08/06; Stress:  1; Step:   310; Simulation step:  310
                  MF iterations:       54; SZ iterations:     54

Date: 1981/08/07; Stress:  1; Step:   311; Simulation step:  311
                  MF iterations:       37; SZ iterations:     37

Date: 1981/08/08; Stress:  1; Step:   312; Simulation step:  312
                  MF iterations:       43; SZ iterations:     43

Date: 1981/08/09; Stress:  1; Step:   313; Simulation step:  313
                  MF iterations:       55; SZ iterations:     55

Date: 1981/08/10; Stress:  1; Step:   314; Simulation step:  314
                  MF iterations:       33; SZ iterations:     33

Date: 1981/08/11; Stress:  1; Step:   315; Simulation step:  315
                  MF iterations:       45; SZ iterations:     45

Date: 1981/08/12; Stress:  1; Step:   316; Simulation step:  316
                  MF iterations:       33; SZ iterations:     33

Date: 1981/08/13; Stress:  1; Step:   317; Simulation step:  317
                  MF iterations:       41; SZ iterations:     41

Date: 1981/08/14; Stress:  1; Step:   318; Simulation step:  318
                  MF iterations:       27; SZ iterations:     27

Date: 1981/08/15; Stress:  1; Step:   319; Simulation step:  319
                  MF iterations:       35; SZ iterations:     35

Date: 1981/08/16; Stress:  1; Step:   320; Simulation step:  320
                  MF iterations:       41; SZ iterations:     41

Date: 1981/08/17; Stress:  1; Step:   321; Simulation step:  321
                  MF iterations:       48; SZ iterations:     48

Date: 1981/08/18; Stress:  1; Step:   322; Simulation step:  322
                  MF iterations:       46; SZ iterations:     46

Date: 1981/08/19; Stress:  1; Step:   323; Simulation step:  323
                  MF iterations:       50; SZ iterations:     50

Date: 1981/08/20; Stress:  1; Step:   324; Simulation step:  324
                  MF iterations:       35; SZ iterations:     35

Date: 1981/08/21; Stress:  1; Step:   325; Simulation step:  325
                  MF iterations:       31; SZ iterations:     31

Date: 1981/08/22; Stress:  1; Step:   326; Simulation step:  326
                  MF iterations:       43; SZ iterations:     43

Date: 1981/08/23; Stress:  1; Step:   327; Simulation step:  327
                  MF iterations:       35; SZ iterations:     35

Date: 1981/08/24; Stress:  1; Step:   328; Simulation step:  328
                  MF iterations:       31; SZ iterations:     31

Date: 1981/08/25; Stress:  1; Step:   329; Simulation step:  329
                  MF iterations:       45; SZ iterations:     45

Date: 1981/08/26; Stress:  1; Step:   330; Simulation step:  330
                  MF iterations:       35; SZ iterations:     35

Date: 1981/08/27; Stress:  1; Step:   331; Simulation step:  331
                  MF iterations:       31; SZ iterations:     31

Date: 1981/08/28; Stress:  1; Step:   332; Simulation step:  332
                  MF iterations:       52; SZ iterations:     52

Date: 1981/08/29; Stress:  1; Step:   333; Simulation step:  333
                  MF iterations:       35; SZ iterations:     35

Date: 1981/08/30; Stress:  1; Step:   334; Simulation step:  334
                  MF iterations:       35; SZ iterations:     35

Date: 1981/08/31; Stress:  1; Step:   335; Simulation step:  335
                  MF iterations:       33; SZ iterations:     33

Date: 1981/09/01; Stress:  1; Step:   336; Simulation step:  336
                  MF iterations:       31; SZ iterations:     31

Date: 1981/09/02; Stress:  1; Step:   337; Simulation step:  337
                  MF iterations:       28; SZ iterations:     28

Date: 1981/09/03; Stress:  1; Step:   338; Simulation step:  338
                  MF iterations:       29; SZ iterations:     29

Date: 1981/09/04; Stress:  1; Step:   339; Simulation step:  339
                  MF iterations:       29; SZ iterations:     29

Date: 1981/09/05; Stress:  1; Step:   340; Simulation step:  340
                  MF iterations:       27; SZ iterations:     27

Date: 1981/09/06; Stress:  1; Step:   341; Simulation step:  341
                  MF iterations:       25; SZ iterations:     25

Date: 1981/09/07; Stress:  1; Step:   342; Simulation step:  342
                  MF iterations:       30; SZ iterations:     30

Date: 1981/09/08; Stress:  1; Step:   343; Simulation step:  343
                  MF iterations:       29; SZ iterations:     29

Date: 1981/09/09; Stress:  1; Step:   344; Simulation step:  344
                  MF iterations:       29; SZ iterations:     29

Date: 1981/09/10; Stress:  1; Step:   345; Simulation step:  345
                  MF iterations:       25; SZ iterations:     25

Date: 1981/09/11; Stress:  1; Step:   346; Simulation step:  346
                  MF iterations:       33; SZ iterations:     33

Date: 1981/09/12; Stress:  1; Step:   347; Simulation step:  347
                  MF iterations:       23; SZ iterations:     23

Date: 1981/09/13; Stress:  1; Step:   348; Simulation step:  348
                  MF iterations:       33; SZ iterations:     33

Date: 1981/09/14; Stress:  1; Step:   349; Simulation step:  349
                  MF iterations:       28; SZ iterations:     28

Date: 1981/09/15; Stress:  1; Step:   350; Simulation step:  350
                  MF iterations:       35; SZ iterations:     35

Date: 1981/09/16; Stress:  1; Step:   351; Simulation step:  351
                  MF iterations:       28; SZ iterations:     28

Date: 1981/09/17; Stress:  1; Step:   352; Simulation step:  352
                  MF iterations:       28; SZ iterations:     28

Date: 1981/09/18; Stress:  1; Step:   353; Simulation step:  353
                  MF iterations:       30; SZ iterations:     30

Date: 1981/09/19; Stress:  1; Step:   354; Simulation step:  354
                  MF iterations:       27; SZ iterations:     27

Date: 1981/09/20; Stress:  1; Step:   355; Simulation step:  355
                  MF iterations:       28; SZ iterations:     28

Date: 1981/09/21; Stress:  1; Step:   356; Simulation step:  356
                  MF iterations:       36; SZ iterations:     36

Date: 1981/09/22; Stress:  1; Step:   357; Simulation step:  357
                  MF iterations:       28; SZ iterations:     28

Date: 1981/09/23; Stress:  1; Step:   358; Simulation step:  358
                  MF iterations:       22; SZ iterations:     22

Date: 1981/09/24; Stress:  1; Step:   359; Simulation step:  359
                  MF iterations:        5; SZ iterations:      5

Date: 1981/09/25; Stress:  1; Step:   360; Simulation step:  360
                  MF iterations:       12; SZ iterations:     12

Date: 1981/09/26; Stress:  1; Step:   361; Simulation step:  361
                  MF iterations:       15; SZ iterations:     15

Date: 1981/09/27; Stress:  1; Step:   362; Simulation step:  362
                  MF iterations:       13; SZ iterations:     13

Date: 1981/09/28; Stress:  1; Step:   363; Simulation step:  363
                  MF iterations:       16; SZ iterations:     16

Date: 1981/09/29; Stress:  1; Step:   364; Simulation step:  364
                  MF iterations:       16; SZ iterations:     16

Date: 1981/09/30; Stress:  1; Step:   365; Simulation step:  365
                  MF iterations:       25; SZ iterations:     25

Date: 1981/10/01; Stress:  1; Step:   366; Simulation step:  366
                  MF iterations:       12; SZ iterations:     12

Date: 1981/10/02; Stress:  1; Step:   367; Simulation step:  367
                  MF iterations:       13; SZ iterations:     13

Date: 1981/10/03; Stress:  1; Step:   368; Simulation step:  368
                  MF iterations:       12; SZ iterations:     12

Date: 1981/10/04; Stress:  1; Step:   369; Simulation step:  369
                  MF iterations:        6; SZ iterations:      6

Date: 1981/10/05; Stress:  1; Step:   370; Simulation step:  370
                  MF iterations:       11; SZ iterations:     11

Date: 1981/10/06; Stress:  1; Step:   371; Simulation step:  371
                  MF iterations:       13; SZ iterations:     13

Date: 1981/10/07; Stress:  1; Step:   372; Simulation step:  372
                  MF iterations:        5; SZ iterations:      5

Date: 1981/10/08; Stress:  1; Step:   373; Simulation step:  373
                  MF iterations:        2; SZ iterations:      2

Date: 1981/10/09; Stress:  1; Step:   374; Simulation step:  374
                  MF iterations:        5; SZ iterations:      5

Date: 1981/10/10; Stress:  1; Step:   375; Simulation step:  375
                  MF iterations:        3; SZ iterations:      3

Date: 1981/10/11; Stress:  1; Step:   376; Simulation step:  376
                  MF iterations:        3; SZ iterations:      3

Date: 1981/10/12; Stress:  1; Step:   377; Simulation step:  377
                  MF iterations:        3; SZ iterations:      3

Date: 1981/10/13; Stress:  1; Step:   378; Simulation step:  378
                  MF iterations:        6; SZ iterations:      6

Date: 1981/10/14; Stress:  1; Step:   379; Simulation step:  379
                  MF iterations:        4; SZ iterations:      4

Date: 1981/10/15; Stress:  1; Step:   380; Simulation step:  380
                  MF iterations:        9; SZ iterations:      9

Date: 1981/10/16; Stress:  1; Step:   381; Simulation step:  381
                  MF iterations:        3; SZ iterations:      3

Date: 1981/10/17; Stress:  1; Step:   382; Simulation step:  382
                  MF iterations:       21; SZ iterations:     21

Date: 1981/10/18; Stress:  1; Step:   383; Simulation step:  383
                  MF iterations:        5; SZ iterations:      5

Date: 1981/10/19; Stress:  1; Step:   384; Simulation step:  384
                  MF iterations:        6; SZ iterations:      6

Date: 1981/10/20; Stress:  1; Step:   385; Simulation step:  385
                  MF iterations:        6; SZ iterations:      6

Date: 1981/10/21; Stress:  1; Step:   386; Simulation step:  386
                  MF iterations:        5; SZ iterations:      5

Date: 1981/10/22; Stress:  1; Step:   387; Simulation step:  387
                  MF iterations:       35; SZ iterations:     35

Date: 1981/10/23; Stress:  1; Step:   388; Simulation step:  388
                  MF iterations:       12; SZ iterations:     12

Date: 1981/10/24; Stress:  1; Step:   389; Simulation step:  389
                  MF iterations:        6; SZ iterations:      6

Date: 1981/10/25; Stress:  1; Step:   390; Simulation step:  390
                  MF iterations:       28; SZ iterations:     28

Date: 1981/10/26; Stress:  1; Step:   391; Simulation step:  391
                  MF iterations:       53; SZ iterations:     53

Date: 1981/10/27; Stress:  1; Step:   392; Simulation step:  392
                  MF iterations:       17; SZ iterations:     17

Date: 1981/10/28; Stress:  1; Step:   393; Simulation step:  393
                  MF iterations:       18; SZ iterations:     18

Date: 1981/10/29; Stress:  1; Step:   394; Simulation step:  394
                  MF iterations:       17; SZ iterations:     17

Date: 1981/10/30; Stress:  1; Step:   395; Simulation step:  395
                  MF iterations:        6; SZ iterations:      6

Date: 1981/10/31; Stress:  1; Step:   396; Simulation step:  396
                  MF iterations:        9; SZ iterations:      9

Date: 1981/11/01; Stress:  1; Step:   397; Simulation step:  397
                  MF iterations:        8; SZ iterations:      8

Date: 1981/11/02; Stress:  1; Step:   398; Simulation step:  398
                  MF iterations:        9; SZ iterations:      9

Date: 1981/11/03; Stress:  1; Step:   399; Simulation step:  399
                  MF iterations:       28; SZ iterations:     28

Date: 1981/11/04; Stress:  1; Step:   400; Simulation step:  400
                  MF iterations:       14; SZ iterations:     14

Date: 1981/11/05; Stress:  1; Step:   401; Simulation step:  401
                  MF iterations:       15; SZ iterations:     15

Date: 1981/11/06; Stress:  1; Step:   402; Simulation step:  402
                  MF iterations:        9; SZ iterations:      9

Date: 1981/11/07; Stress:  1; Step:   403; Simulation step:  403
                  MF iterations:       14; SZ iterations:     14

Date: 1981/11/08; Stress:  1; Step:   404; Simulation step:  404
                  MF iterations:        5; SZ iterations:      5

Date: 1981/11/09; Stress:  1; Step:   405; Simulation step:  405
                  MF iterations:       12; SZ iterations:     12

Date: 1981/11/10; Stress:  1; Step:   406; Simulation step:  406
                  MF iterations:        5; SZ iterations:      5

Date: 1981/11/11; Stress:  1; Step:   407; Simulation step:  407
                  MF iterations:       14; SZ iterations:     14

Date: 1981/11/12; Stress:  1; Step:   408; Simulation step:  408
                  MF iterations:       13; SZ iterations:     13

Date: 1981/11/13; Stress:  1; Step:   409; Simulation step:  409
                  MF iterations:       69; SZ iterations:     69

Date: 1981/11/14; Stress:  1; Step:   410; Simulation step:  410
                  MF iterations:       18; SZ iterations:     18

Date: 1981/11/15; Stress:  1; Step:   411; Simulation step:  411
                  MF iterations:        5; SZ iterations:      5

Date: 1981/11/16; Stress:  1; Step:   412; Simulation step:  412
                  MF iterations:       17; SZ iterations:     17

Date: 1981/11/17; Stress:  1; Step:   413; Simulation step:  413
                  MF iterations:       23; SZ iterations:     23

Date: 1981/11/18; Stress:  1; Step:   414; Simulation step:  414
                  MF iterations:       13; SZ iterations:     13

Date: 1981/11/19; Stress:  1; Step:   415; Simulation step:  415
                  MF iterations:       13; SZ iterations:     13

Date: 1981/11/20; Stress:  1; Step:   416; Simulation step:  416
                  MF iterations:       31; SZ iterations:     31

Date: 1981/11/21; Stress:  1; Step:   417; Simulation step:  417
                  MF iterations:       13; SZ iterations:     13

Date: 1981/11/22; Stress:  1; Step:   418; Simulation step:  418
                  MF iterations:       10; SZ iterations:     10

Date: 1981/11/23; Stress:  1; Step:   419; Simulation step:  419
                  MF iterations:       17; SZ iterations:     17

Date: 1981/11/24; Stress:  1; Step:   420; Simulation step:  420
                  MF iterations:       20; SZ iterations:     20

Date: 1981/11/25; Stress:  1; Step:   421; Simulation step:  421
                  MF iterations:       12; SZ iterations:     12

Date: 1981/11/26; Stress:  1; Step:   422; Simulation step:  422
                  MF iterations:       11; SZ iterations:     11

Date: 1981/11/27; Stress:  1; Step:   423; Simulation step:  423
                  MF iterations:       12; SZ iterations:     12

Date: 1981/11/28; Stress:  1; Step:   424; Simulation step:  424
                  MF iterations:       13; SZ iterations:     13

Date: 1981/11/29; Stress:  1; Step:   425; Simulation step:  425
                  MF iterations:       19; SZ iterations:     19

Date: 1981/11/30; Stress:  1; Step:   426; Simulation step:  426
                  MF iterations:       24; SZ iterations:     24

Date: 1981/12/01; Stress:  1; Step:   427; Simulation step:  427
                  MF iterations:       28; SZ iterations:     28

Date: 1981/12/02; Stress:  1; Step:   428; Simulation step:  428
                  MF iterations:       20; SZ iterations:     20

Date: 1981/12/03; Stress:  1; Step:   429; Simulation step:  429
                  MF iterations:       23; SZ iterations:     23

Date: 1981/12/04; Stress:  1; Step:   430; Simulation step:  430
                  MF iterations:        5; SZ iterations:      5

Date: 1981/12/05; Stress:  1; Step:   431; Simulation step:  431
                  MF iterations:       28; SZ iterations:     28

Date: 1981/12/06; Stress:  1; Step:   432; Simulation step:  432
                  MF iterations:       21; SZ iterations:     21

Date: 1981/12/07; Stress:  1; Step:   433; Simulation step:  433
                  MF iterations:       21; SZ iterations:     21

Date: 1981/12/08; Stress:  1; Step:   434; Simulation step:  434
                  MF iterations:        5; SZ iterations:      5

Date: 1981/12/09; Stress:  1; Step:   435; Simulation step:  435
                  MF iterations:       10; SZ iterations:     10

Date: 1981/12/10; Stress:  1; Step:   436; Simulation step:  436
                  MF iterations:        4; SZ iterations:      4

Date: 1981/12/11; Stress:  1; Step:   437; Simulation step:  437
                  MF iterations:       12; SZ iterations:     12

Date: 1981/12/12; Stress:  1; Step:   438; Simulation step:  438
                  MF iterations:        3; SZ iterations:      3

Date: 1981/12/13; Stress:  1; Step:   439; Simulation step:  439
                  MF iterations:        7; SZ iterations:      7

Date: 1981/12/14; Stress:  1; Step:   440; Simulation step:  440
                  MF iterations:       10; SZ iterations:     10

Date: 1981/12/15; Stress:  1; Step:   441; Simulation step:  441
                  MF iterations:        3; SZ iterations:      3

Date: 1981/12/16; Stress:  1; Step:   442; Simulation step:  442
                  MF iterations:       22; SZ iterations:     22

Date: 1981/12/17; Stress:  1; Step:   443; Simulation step:  443
                  MF iterations:       57; SZ iterations:     57

Date: 1981/12/18; Stress:  1; Step:   444; Simulation step:  444
                  MF iterations:        7; SZ iterations:      7

Date: 1981/12/19; Stress:  1; Step:   445; Simulation step:  445
                  MF iterations:       19; SZ iterations:     19

Date: 1981/12/20; Stress:  1; Step:   446; Simulation step:  446
                  MF iterations:       20; SZ iterations:     20

Date: 1981/12/21; Stress:  1; Step:   447; Simulation step:  447
                  MF iterations:       25; SZ iterations:     25

Date: 1981/12/22; Stress:  1; Step:   448; Simulation step:  448
                  MF iterations:       11; SZ iterations:     11

Date: 1981/12/23; Stress:  1; Step:   449; Simulation step:  449
                  MF iterations:       14; SZ iterations:     14

Date: 1981/12/24; Stress:  1; Step:   450; Simulation step:  450
                  MF iterations:       24; SZ iterations:     24

Date: 1981/12/25; Stress:  1; Step:   451; Simulation step:  451
                  MF iterations:       34; SZ iterations:     34

Date: 1981/12/26; Stress:  1; Step:   452; Simulation step:  452
                  MF iterations:        5; SZ iterations:      5

Date: 1981/12/27; Stress:  1; Step:   453; Simulation step:  453
                  MF iterations:       23; SZ iterations:     23

Date: 1981/12/28; Stress:  1; Step:   454; Simulation step:  454
                  MF iterations:       30; SZ iterations:     30

Date: 1981/12/29; Stress:  1; Step:   455; Simulation step:  455
                  MF iterations:       18; SZ iterations:     18

Date: 1981/12/30; Stress:  1; Step:   456; Simulation step:  456
                  MF iterations:        9; SZ iterations:      9

Date: 1981/12/31; Stress:  1; Step:   457; Simulation step:  457
                  MF iterations:       28; SZ iterations:     28

Date: 1982/01/01; Stress:  1; Step:   458; Simulation step:  458
                  MF iterations:       25; SZ iterations:     25

Date: 1982/01/02; Stress:  1; Step:   459; Simulation step:  459
                  MF iterations:       30; SZ iterations:     30

Date: 1982/01/03; Stress:  1; Step:   460; Simulation step:  460
                  MF iterations:       28; SZ iterations:     28

Date: 1982/01/04; Stress:  1; Step:   461; Simulation step:  461
                  MF iterations:        7; SZ iterations:      7

Date: 1982/01/05; Stress:  1; Step:   462; Simulation step:  462
                  MF iterations:       35; SZ iterations:     35

Date: 1982/01/06; Stress:  1; Step:   463; Simulation step:  463
                  MF iterations:       38; SZ iterations:     38

Date: 1982/01/07; Stress:  1; Step:   464; Simulation step:  464
                  MF iterations:       32; SZ iterations:     32

Date: 1982/01/08; Stress:  1; Step:   465; Simulation step:  465
                  MF iterations:       47; SZ iterations:     47

Date: 1982/01/09; Stress:  1; Step:   466; Simulation step:  466
                  MF iterations:        6; SZ iterations:      6

Date: 1982/01/10; Stress:  1; Step:   467; Simulation step:  467
                  MF iterations:       34; SZ iterations:     34

Date: 1982/01/11; Stress:  1; Step:   468; Simulation step:  468
                  MF iterations:       22; SZ iterations:     22

Date: 1982/01/12; Stress:  1; Step:   469; Simulation step:  469
                  MF iterations:       33; SZ iterations:     33

Date: 1982/01/13; Stress:  1; Step:   470; Simulation step:  470
                  MF iterations:       20; SZ iterations:     20

Date: 1982/01/14; Stress:  1; Step:   471; Simulation step:  471
                  MF iterations:        5; SZ iterations:      5

Date: 1982/01/15; Stress:  1; Step:   472; Simulation step:  472
                  MF iterations:       64; SZ iterations:     64

Date: 1982/01/16; Stress:  1; Step:   473; Simulation step:  473
                  MF iterations:        5; SZ iterations:      5

Date: 1982/01/17; Stress:  1; Step:   474; Simulation step:  474
                  MF iterations:       26; SZ iterations:     26

Date: 1982/01/18; Stress:  1; Step:   475; Simulation step:  475
                  MF iterations:        4; SZ iterations:      4

Date: 1982/01/19; Stress:  1; Step:   476; Simulation step:  476
                  MF iterations:       44; SZ iterations:     44

Date: 1982/01/20; Stress:  1; Step:   477; Simulation step:  477
                  MF iterations:        5; SZ iterations:      5

Date: 1982/01/21; Stress:  1; Step:   478; Simulation step:  478
                  MF iterations:       35; SZ iterations:     35

Date: 1982/01/22; Stress:  1; Step:   479; Simulation step:  479
                  MF iterations:       16; SZ iterations:     16

Date: 1982/01/23; Stress:  1; Step:   480; Simulation step:  480
                  MF iterations:        4; SZ iterations:      4

Date: 1982/01/24; Stress:  1; Step:   481; Simulation step:  481
                  MF iterations:       28; SZ iterations:     28

Date: 1982/01/25; Stress:  1; Step:   482; Simulation step:  482
                  MF iterations:       32; SZ iterations:     32

Date: 1982/01/26; Stress:  1; Step:   483; Simulation step:  483
                  MF iterations:        5; SZ iterations:      5

Date: 1982/01/27; Stress:  1; Step:   484; Simulation step:  484
                  MF iterations:        9; SZ iterations:      9

Date: 1982/01/28; Stress:  1; Step:   485; Simulation step:  485
                  MF iterations:       24; SZ iterations:     24

Date: 1982/01/29; Stress:  1; Step:   486; Simulation step:  486
                  MF iterations:       41; SZ iterations:     41

Date: 1982/01/30; Stress:  1; Step:   487; Simulation step:  487
                  MF iterations:        7; SZ iterations:      7

Date: 1982/01/31; Stress:  1; Step:   488; Simulation step:  488
                  MF iterations:        5; SZ iterations:      5

Date: 1982/02/01; Stress:  1; Step:   489; Simulation step:  489
                  MF iterations:       28; SZ iterations:     28

Date: 1982/02/02; Stress:  1; Step:   490; Simulation step:  490
                  MF iterations:        2; SZ iterations:      2

Date: 1982/02/03; Stress:  1; Step:   491; Simulation step:  491
                  MF iterations:        5; SZ iterations:      5

Date: 1982/02/04; Stress:  1; Step:   492; Simulation step:  492
                  MF iterations:        5; SZ iterations:      5

Date: 1982/02/05; Stress:  1; Step:   493; Simulation step:  493
                  MF iterations:        6; SZ iterations:      6

Date: 1982/02/06; Stress:  1; Step:   494; Simulation step:  494
                  MF iterations:        5; SZ iterations:      5

Date: 1982/02/07; Stress:  1; Step:   495; Simulation step:  495
                  MF iterations:        5; SZ iterations:      5

Date: 1982/02/08; Stress:  1; Step:   496; Simulation step:  496
                  MF iterations:        4; SZ iterations:      4

Date: 1982/02/09; Stress:  1; Step:   497; Simulation step:  497
                  MF iterations:        5; SZ iterations:      5

Date: 1982/02/10; Stress:  1; Step:   498; Simulation step:  498
                  MF iterations:        5; SZ iterations:      5

Date: 1982/02/11; Stress:  1; Step:   499; Simulation step:  499
                  MF iterations:       23; SZ iterations:     23

Date: 1982/02/12; Stress:  1; Step:   500; Simulation step:  500
                  MF iterations:        4; SZ iterations:      4

Date: 1982/02/13; Stress:  1; Step:   501; Simulation step:  501
                  MF iterations:        5; SZ iterations:      5

Date: 1982/02/14; Stress:  1; Step:   502; Simulation step:  502
                  MF iterations:        4; SZ iterations:      4

Date: 1982/02/15; Stress:  1; Step:   503; Simulation step:  503
                  MF iterations:        4; SZ iterations:      4

Date: 1982/02/16; Stress:  1; Step:   504; Simulation step:  504
                  MF iterations:        8; SZ iterations:      8

Date: 1982/02/17; Stress:  1; Step:   505; Simulation step:  505
                  MF iterations:       10; SZ iterations:     10

Date: 1982/02/18; Stress:  1; Step:   506; Simulation step:  506
                  MF iterations:        9; SZ iterations:      9

Date: 1982/02/19; Stress:  1; Step:   507; Simulation step:  507
                  MF iterations:        6; SZ iterations:      6

Date: 1982/02/20; Stress:  1; Step:   508; Simulation step:  508
                  MF iterations:       13; SZ iterations:     13

Date: 1982/02/21; Stress:  1; Step:   509; Simulation step:  509
                  MF iterations:       24; SZ iterations:     24

Date: 1982/02/22; Stress:  1; Step:   510; Simulation step:  510
                  MF iterations:        6; SZ iterations:      6

Date: 1982/02/23; Stress:  1; Step:   511; Simulation step:  511
                  MF iterations:        4; SZ iterations:      4

Date: 1982/02/24; Stress:  1; Step:   512; Simulation step:  512
                  MF iterations:        7; SZ iterations:      7

Date: 1982/02/25; Stress:  1; Step:   513; Simulation step:  513
                  MF iterations:       22; SZ iterations:     22

Date: 1982/02/26; Stress:  1; Step:   514; Simulation step:  514
                  MF iterations:        5; SZ iterations:      5

Date: 1982/02/27; Stress:  1; Step:   515; Simulation step:  515
                  MF iterations:        6; SZ iterations:      6

Date: 1982/02/28; Stress:  1; Step:   516; Simulation step:  516
                  MF iterations:        5; SZ iterations:      5

Date: 1982/03/01; Stress:  1; Step:   517; Simulation step:  517
                  MF iterations:        5; SZ iterations:      5

Date: 1982/03/02; Stress:  1; Step:   518; Simulation step:  518
                  MF iterations:        4; SZ iterations:      4

Date: 1982/03/03; Stress:  1; Step:   519; Simulation step:  519
                  MF iterations:       12; SZ iterations:     12

Date: 1982/03/04; Stress:  1; Step:   520; Simulation step:  520
                  MF iterations:       14; SZ iterations:     14

Date: 1982/03/05; Stress:  1; Step:   521; Simulation step:  521
                  MF iterations:       14; SZ iterations:     14

Date: 1982/03/06; Stress:  1; Step:   522; Simulation step:  522
                  MF iterations:       24; SZ iterations:     24

Date: 1982/03/07; Stress:  1; Step:   523; Simulation step:  523
                  MF iterations:        6; SZ iterations:      6

Date: 1982/03/08; Stress:  1; Step:   524; Simulation step:  524
                  MF iterations:       18; SZ iterations:     18

Date: 1982/03/09; Stress:  1; Step:   525; Simulation step:  525
                  MF iterations:        4; SZ iterations:      4

Date: 1982/03/10; Stress:  1; Step:   526; Simulation step:  526
                  MF iterations:        5; SZ iterations:      5

Date: 1982/03/11; Stress:  1; Step:   527; Simulation step:  527
                  MF iterations:       16; SZ iterations:     16

Date: 1982/03/12; Stress:  1; Step:   528; Simulation step:  528
                  MF iterations:        4; SZ iterations:      4

Date: 1982/03/13; Stress:  1; Step:   529; Simulation step:  529
                  MF iterations:       11; SZ iterations:     11

Date: 1982/03/14; Stress:  1; Step:   530; Simulation step:  530
                  MF iterations:        3; SZ iterations:      3

Date: 1982/03/15; Stress:  1; Step:   531; Simulation step:  531
                  MF iterations:       13; SZ iterations:     13

Date: 1982/03/16; Stress:  1; Step:   532; Simulation step:  532
                  MF iterations:        5; SZ iterations:      5

Date: 1982/03/17; Stress:  1; Step:   533; Simulation step:  533
                  MF iterations:       26; SZ iterations:     26

Date: 1982/03/18; Stress:  1; Step:   534; Simulation step:  534
                  MF iterations:       21; SZ iterations:     21

Date: 1982/03/19; Stress:  1; Step:   535; Simulation step:  535
                  MF iterations:       47; SZ iterations:     47

Date: 1982/03/20; Stress:  1; Step:   536; Simulation step:  536
                  MF iterations:       16; SZ iterations:     16

Date: 1982/03/21; Stress:  1; Step:   537; Simulation step:  537
                  MF iterations:        4; SZ iterations:      4

Date: 1982/03/22; Stress:  1; Step:   538; Simulation step:  538
                  MF iterations:       22; SZ iterations:     22

Date: 1982/03/23; Stress:  1; Step:   539; Simulation step:  539
                  MF iterations:       24; SZ iterations:     24

Date: 1982/03/24; Stress:  1; Step:   540; Simulation step:  540
                  MF iterations:        4; SZ iterations:      4

Date: 1982/03/25; Stress:  1; Step:   541; Simulation step:  541
                  MF iterations:       25; SZ iterations:     25

Date: 1982/03/26; Stress:  1; Step:   542; Simulation step:  542
                  MF iterations:       39; SZ iterations:     39

Date: 1982/03/27; Stress:  1; Step:   543; Simulation step:  543
                  MF iterations:       11; SZ iterations:     11

Date: 1982/03/28; Stress:  1; Step:   544; Simulation step:  544
                  MF iterations:       10; SZ iterations:     10

Date: 1982/03/29; Stress:  1; Step:   545; Simulation step:  545
                  MF iterations:        5; SZ iterations:      5

Date: 1982/03/30; Stress:  1; Step:   546; Simulation step:  546
                  MF iterations:       20; SZ iterations:     20

Date: 1982/03/31; Stress:  1; Step:   547; Simulation step:  547
                  MF iterations:        5; SZ iterations:      5

Date: 1982/04/01; Stress:  1; Step:   548; Simulation step:  548
                  MF iterations:       14; SZ iterations:     14

Date: 1982/04/02; Stress:  1; Step:   549; Simulation step:  549
                  MF iterations:        4; SZ iterations:      4

Date: 1982/04/03; Stress:  1; Step:   550; Simulation step:  550
                  MF iterations:       17; SZ iterations:     17

Date: 1982/04/04; Stress:  1; Step:   551; Simulation step:  551
                  MF iterations:        4; SZ iterations:      4

Date: 1982/04/05; Stress:  1; Step:   552; Simulation step:  552
                  MF iterations:        4; SZ iterations:      4

Date: 1982/04/06; Stress:  1; Step:   553; Simulation step:  553
                  MF iterations:        4; SZ iterations:      4

Date: 1982/04/07; Stress:  1; Step:   554; Simulation step:  554
                  MF iterations:        4; SZ iterations:      4

Date: 1982/04/08; Stress:  1; Step:   555; Simulation step:  555
                  MF iterations:       22; SZ iterations:     22

Date: 1982/04/09; Stress:  1; Step:   556; Simulation step:  556
                  MF iterations:        3; SZ iterations:      3

Date: 1982/04/10; Stress:  1; Step:   557; Simulation step:  557
                  MF iterations:       29; SZ iterations:     29

Date: 1982/04/11; Stress:  1; Step:   558; Simulation step:  558
                  MF iterations:       32; SZ iterations:     32

Date: 1982/04/12; Stress:  1; Step:   559; Simulation step:  559
                  MF iterations:        9; SZ iterations:      9

Date: 1982/04/13; Stress:  1; Step:   560; Simulation step:  560
                  MF iterations:        2; SZ iterations:      2

Date: 1982/04/14; Stress:  1; Step:   561; Simulation step:  561
                  MF iterations:        7; SZ iterations:      7

Date: 1982/04/15; Stress:  1; Step:   562; Simulation step:  562
                  MF iterations:       45; SZ iterations:     45

Date: 1982/04/16; Stress:  1; Step:   563; Simulation step:  563
                  MF iterations:       35; SZ iterations:     35

Date: 1982/04/17; Stress:  1; Step:   564; Simulation step:  564
                  MF iterations:        5; SZ iterations:      5

Date: 1982/04/18; Stress:  1; Step:   565; Simulation step:  565
                  MF iterations:        5; SZ iterations:      5

Date: 1982/04/19; Stress:  1; Step:   566; Simulation step:  566
                  MF iterations:       15; SZ iterations:     15

Date: 1982/04/20; Stress:  1; Step:   567; Simulation step:  567
                  MF iterations:       31; SZ iterations:     31

Date: 1982/04/21; Stress:  1; Step:   568; Simulation step:  568
                  MF iterations:        9; SZ iterations:      9

Date: 1982/04/22; Stress:  1; Step:   569; Simulation step:  569
                  MF iterations:       15; SZ iterations:     15

Date: 1982/04/23; Stress:  1; Step:   570; Simulation step:  570
                  MF iterations:        9; SZ iterations:      9

Date: 1982/04/24; Stress:  1; Step:   571; Simulation step:  571
                  MF iterations:       48; SZ iterations:     48

Date: 1982/04/25; Stress:  1; Step:   572; Simulation step:  572
                  MF iterations:       17; SZ iterations:     17

[...]
                  MF iterations:       26; SZ iterations:     26

Date: 1983/09/14; Stress:  1; Step:  1079; Simulation step: 1079
                  MF iterations:       26; SZ iterations:     26

Date: 1983/09/15; Stress:  1; Step:  1080; Simulation step: 1080
                  MF iterations:       19; SZ iterations:     19

Date: 1983/09/16; Stress:  1; Step:  1081; Simulation step: 1081
                  MF iterations:       25; SZ iterations:     25

Date: 1983/09/17; Stress:  1; Step:  1082; Simulation step: 1082
                  MF iterations:       28; SZ iterations:     28

Date: 1983/09/18; Stress:  1; Step:  1083; Simulation step: 1083
                  MF iterations:       14; SZ iterations:     14

Date: 1983/09/19; Stress:  1; Step:  1084; Simulation step: 1084
                  MF iterations:       56; SZ iterations:     56

Date: 1983/09/20; Stress:  1; Step:  1085; Simulation step: 1085
                  MF iterations:       13; SZ iterations:     13

Date: 1983/09/21; Stress:  1; Step:  1086; Simulation step: 1086
                  MF iterations:       12; SZ iterations:     12

Date: 1983/09/22; Stress:  1; Step:  1087; Simulation step: 1087
                  MF iterations:       19; SZ iterations:     19

Date: 1983/09/23; Stress:  1; Step:  1088; Simulation step: 1088
                  MF iterations:        5; SZ iterations:      5

Date: 1983/09/24; Stress:  1; Step:  1089; Simulation step: 1089
                  MF iterations:        8; SZ iterations:      8

Date: 1983/09/25; Stress:  1; Step:  1090; Simulation step: 1090
                  MF iterations:        6; SZ iterations:      6

Date: 1983/09/26; Stress:  1; Step:  1091; Simulation step: 1091
                  MF iterations:        5; SZ iterations:      5

Date: 1983/09/27; Stress:  1; Step:  1092; Simulation step: 1092
                  MF iterations:       11; SZ iterations:     11

Date: 1983/09/28; Stress:  1; Step:  1093; Simulation step: 1093
                  MF iterations:       14; SZ iterations:     14

Date: 1983/09/29; Stress:  1; Step:  1094; Simulation step: 1094
                  MF iterations:        4; SZ iterations:      4

Date: 1983/09/30; Stress:  1; Step:  1095; Simulation step: 1095
                  MF iterations:        4; SZ iterations:      4

Date: 1983/10/01; Stress:  1; Step:  1096; Simulation step: 1096
                  MF iterations:       10; SZ iterations:     10

Date: 1983/10/02; Stress:  1; Step:  1097; Simulation step: 1097
                  MF iterations:        3; SZ iterations:      3

Date: 1983/10/03; Stress:  1; Step:  1098; Simulation step: 1098
                  MF iterations:        8; SZ iterations:      8

Date: 1983/10/04; Stress:  1; Step:  1099; Simulation step: 1099
                  MF iterations:        8; SZ iterations:      8

Date: 1983/10/05; Stress:  1; Step:  1100; Simulation step: 1100
                  MF iterations:        9; SZ iterations:      9

Date: 1983/10/06; Stress:  1; Step:  1101; Simulation step: 1101
                  MF iterations:        6; SZ iterations:      6

Date: 1983/10/07; Stress:  1; Step:  1102; Simulation step: 1102
                  MF iterations:       14; SZ iterations:     14

Date: 1983/10/08; Stress:  1; Step:  1103; Simulation step: 1103
                  MF iterations:        7; SZ iterations:      7

Date: 1983/10/09; Stress:  1; Step:  1104; Simulation step: 1104
                  MF iterations:       13; SZ iterations:     13

Date: 1983/10/10; Stress:  1; Step:  1105; Simulation step: 1105
                  MF iterations:        9; SZ iterations:      9

Date: 1983/10/11; Stress:  1; Step:  1106; Simulation step: 1106
                  MF iterations:       12; SZ iterations:     12

Date: 1983/10/12; Stress:  1; Step:  1107; Simulation step: 1107
                  MF iterations:       12; SZ iterations:     12

Date: 1983/10/13; Stress:  1; Step:  1108; Simulation step: 1108
                  MF iterations:       14; SZ iterations:     14

Date: 1983/10/14; Stress:  1; Step:  1109; Simulation step: 1109
                  MF iterations:        7; SZ iterations:      7

Date: 1983/10/15; Stress:  1; Step:  1110; Simulation step: 1110
                  MF iterations:       11; SZ iterations:     11

Date: 1983/10/16; Stress:  1; Step:  1111; Simulation step: 1111
                  MF iterations:       10; SZ iterations:     10

Date: 1983/10/17; Stress:  1; Step:  1112; Simulation step: 1112
                  MF iterations:        7; SZ iterations:      7

Date: 1983/10/18; Stress:  1; Step:  1113; Simulation step: 1113
                  MF iterations:        6; SZ iterations:      6

Date: 1983/10/19; Stress:  1; Step:  1114; Simulation step: 1114
                  MF iterations:       11; SZ iterations:     11

Date: 1983/10/20; Stress:  1; Step:  1115; Simulation step: 1115
                  MF iterations:       18; SZ iterations:     18

Date: 1983/10/21; Stress:  1; Step:  1116; Simulation step: 1116
                  MF iterations:       19; SZ iterations:     19

Date: 1983/10/22; Stress:  1; Step:  1117; Simulation step: 1117
                  MF iterations:       11; SZ iterations:     11

Date: 1983/10/23; Stress:  1; Step:  1118; Simulation step: 1118
                  MF iterations:       11; SZ iterations:     11

Date: 1983/10/24; Stress:  1; Step:  1119; Simulation step: 1119
                  MF iterations:        6; SZ iterations:      6

Date: 1983/10/25; Stress:  1; Step:  1120; Simulation step: 1120
                  MF iterations:       12; SZ iterations:     12

Date: 1983/10/26; Stress:  1; Step:  1121; Simulation step: 1121
                  MF iterations:       12; SZ iterations:     12

Date: 1983/10/27; Stress:  1; Step:  1122; Simulation step: 1122
                  MF iterations:       12; SZ iterations:     12

Date: 1983/10/28; Stress:  1; Step:  1123; Simulation step: 1123
                  MF iterations:       12; SZ iterations:     12

Date: 1983/10/29; Stress:  1; Step:  1124; Simulation step: 1124
                  MF iterations:       10; SZ iterations:     10

Date: 1983/10/30; Stress:  1; Step:  1125; Simulation step: 1125
                  MF iterations:        5; SZ iterations:      5

Date: 1983/10/31; Stress:  1; Step:  1126; Simulation step: 1126
                  MF iterations:       15; SZ iterations:     15

Date: 1983/11/01; Stress:  1; Step:  1127; Simulation step: 1127
                  MF iterations:       17; SZ iterations:     17

Date: 1983/11/02; Stress:  1; Step:  1128; Simulation step: 1128
                  MF iterations:        9; SZ iterations:      9

Date: 1983/11/03; Stress:  1; Step:  1129; Simulation step: 1129
                  MF iterations:        9; SZ iterations:      9

Date: 1983/11/04; Stress:  1; Step:  1130; Simulation step: 1130
                  MF iterations:       17; SZ iterations:     17

Date: 1983/11/05; Stress:  1; Step:  1131; Simulation step: 1131
                  MF iterations:        7; SZ iterations:      7

Date: 1983/11/06; Stress:  1; Step:  1132; Simulation step: 1132
                  MF iterations:        9; SZ iterations:      9

Date: 1983/11/07; Stress:  1; Step:  1133; Simulation step: 1133
                  MF iterations:        8; SZ iterations:      8

Date: 1983/11/08; Stress:  1; Step:  1134; Simulation step: 1134
                  MF iterations:        9; SZ iterations:      9

Date: 1983/11/09; Stress:  1; Step:  1135; Simulation step: 1135
                  MF iterations:        5; SZ iterations:      5

Date: 1983/11/10; Stress:  1; Step:  1136; Simulation step: 1136
                  MF iterations:        9; SZ iterations:      9

Date: 1983/11/11; Stress:  1; Step:  1137; Simulation step: 1137
                  MF iterations:       16; SZ iterations:     16

Date: 1983/11/12; Stress:  1; Step:  1138; Simulation step: 1138
                  MF iterations:        4; SZ iterations:      4

Date: 1983/11/13; Stress:  1; Step:  1139; Simulation step: 1139
                  MF iterations:        7; SZ iterations:      7

Date: 1983/11/14; Stress:  1; Step:  1140; Simulation step: 1140
                  MF iterations:        3; SZ iterations:      3

Date: 1983/11/15; Stress:  1; Step:  1141; Simulation step: 1141
                  MF iterations:        6; SZ iterations:      6

Date: 1983/11/16; Stress:  1; Step:  1142; Simulation step: 1142
                  MF iterations:       10; SZ iterations:     10

Date: 1983/11/17; Stress:  1; Step:  1143; Simulation step: 1143
                  MF iterations:       15; SZ iterations:     15

Date: 1983/11/18; Stress:  1; Step:  1144; Simulation step: 1144
                  MF iterations:        3; SZ iterations:      3

Date: 1983/11/19; Stress:  1; Step:  1145; Simulation step: 1145
                  MF iterations:        4; SZ iterations:      4

Date: 1983/11/20; Stress:  1; Step:  1146; Simulation step: 1146
                  MF iterations:        8; SZ iterations:      8

Date: 1983/11/21; Stress:  1; Step:  1147; Simulation step: 1147
                  MF iterations:        8; SZ iterations:      8

Date: 1983/11/22; Stress:  1; Step:  1148; Simulation step: 1148
                  MF iterations:        3; SZ iterations:      3

Date: 1983/11/23; Stress:  1; Step:  1149; Simulation step: 1149
                  MF iterations:       12; SZ iterations:     12

Date: 1983/11/24; Stress:  1; Step:  1150; Simulation step: 1150
                  MF iterations:        3; SZ iterations:      3

Date: 1983/11/25; Stress:  1; Step:  1151; Simulation step: 1151
                  MF iterations:        2; SZ iterations:      2

Date: 1983/11/26; Stress:  1; Step:  1152; Simulation step: 1152
                  MF iterations:        8; SZ iterations:      8

Date: 1983/11/27; Stress:  1; Step:  1153; Simulation step: 1153
                  MF iterations:       12; SZ iterations:     12

Date: 1983/11/28; Stress:  1; Step:  1154; Simulation step: 1154
                  MF iterations:        4; SZ iterations:      4

Date: 1983/11/29; Stress:  1; Step:  1155; Simulation step: 1155
                  MF iterations:        7; SZ iterations:      7

Date: 1983/11/30; Stress:  1; Step:  1156; Simulation step: 1156
                  MF iterations:        3; SZ iterations:      3

Date: 1983/12/01; Stress:  1; Step:  1157; Simulation step: 1157
                  MF iterations:       13; SZ iterations:     13

Date: 1983/12/02; Stress:  1; Step:  1158; Simulation step: 1158
                  MF iterations:        3; SZ iterations:      3

Date: 1983/12/03; Stress:  1; Step:  1159; Simulation step: 1159
                  MF iterations:        2; SZ iterations:      2

Date: 1983/12/04; Stress:  1; Step:  1160; Simulation step: 1160
                  MF iterations:        3; SZ iterations:      3

Date: 1983/12/05; Stress:  1; Step:  1161; Simulation step: 1161
                  MF iterations:        4; SZ iterations:      4

Date: 1983/12/06; Stress:  1; Step:  1162; Simulation step: 1162
                  MF iterations:        4; SZ iterations:      4

Date: 1983/12/07; Stress:  1; Step:  1163; Simulation step: 1163
                  MF iterations:        4; SZ iterations:      4

Date: 1983/12/08; Stress:  1; Step:  1164; Simulation step: 1164
                  MF iterations:        9; SZ iterations:      9

Date: 1983/12/09; Stress:  1; Step:  1165; Simulation step: 1165
                  MF iterations:        6; SZ iterations:      6

Date: 1983/12/10; Stress:  1; Step:  1166; Simulation step: 1166
                  MF iterations:        2; SZ iterations:      2

Date: 1983/12/11; Stress:  1; Step:  1167; Simulation step: 1167
                  MF iterations:        6; SZ iterations:      6

Date: 1983/12/12; Stress:  1; Step:  1168; Simulation step: 1168
                  MF iterations:        8; SZ iterations:      8

Date: 1983/12/13; Stress:  1; Step:  1169; Simulation step: 1169
                  MF iterations:        3; SZ iterations:      3

Date: 1983/12/14; Stress:  1; Step:  1170; Simulation step: 1170
                  MF iterations:        3; SZ iterations:      3

Date: 1983/12/15; Stress:  1; Step:  1171; Simulation step: 1171
                  MF iterations:        4; SZ iterations:      4

Date: 1983/12/16; Stress:  1; Step:  1172; Simulation step: 1172
                  MF iterations:        3; SZ iterations:      3

Date: 1983/12/17; Stress:  1; Step:  1173; Simulation step: 1173
                  MF iterations:        3; SZ iterations:      3

Date: 1983/12/18; Stress:  1; Step:  1174; Simulation step: 1174
                  MF iterations:        5; SZ iterations:      5

Date: 1983/12/19; Stress:  1; Step:  1175; Simulation step: 1175
                  MF iterations:        3; SZ iterations:      3

Date: 1983/12/20; Stress:  1; Step:  1176; Simulation step: 1176
                  MF iterations:        4; SZ iterations:      4

Date: 1983/12/21; Stress:  1; Step:  1177; Simulation step: 1177
                  MF iterations:        3; SZ iterations:      3

Date: 1983/12/22; Stress:  1; Step:  1178; Simulation step: 1178
                  MF iterations:       20; SZ iterations:     20

Date: 1983/12/23; Stress:  1; Step:  1179; Simulation step: 1179
                  MF iterations:        3; SZ iterations:      3

Date: 1983/12/24; Stress:  1; Step:  1180; Simulation step: 1180
                  MF iterations:        9; SZ iterations:      9

Date: 1983/12/25; Stress:  1; Step:  1181; Simulation step: 1181
                  MF iterations:       11; SZ iterations:     11

Date: 1983/12/26; Stress:  1; Step:  1182; Simulation step: 1182
                  MF iterations:        3; SZ iterations:      3

Date: 1983/12/27; Stress:  1; Step:  1183; Simulation step: 1183
                  MF iterations:        4; SZ iterations:      4

Date: 1983/12/28; Stress:  1; Step:  1184; Simulation step: 1184
                  MF iterations:        4; SZ iterations:      4

Date: 1983/12/29; Stress:  1; Step:  1185; Simulation step: 1185
                  MF iterations:        8; SZ iterations:      8

Date: 1983/12/30; Stress:  1; Step:  1186; Simulation step: 1186
                  MF iterations:        6; SZ iterations:      6

Date: 1983/12/31; Stress:  1; Step:  1187; Simulation step: 1187
                  MF iterations:        8; SZ iterations:      8

Date: 1984/01/01; Stress:  1; Step:  1188; Simulation step: 1188
                  MF iterations:       11; SZ iterations:     11

Date: 1984/01/02; Stress:  1; Step:  1189; Simulation step: 1189
                  MF iterations:       13; SZ iterations:     13

Date: 1984/01/03; Stress:  1; Step:  1190; Simulation step: 1190
                  MF iterations:       17; SZ iterations:     17

Date: 1984/01/04; Stress:  1; Step:  1191; Simulation step: 1191
                  MF iterations:        4; SZ iterations:      4

Date: 1984/01/05; Stress:  1; Step:  1192; Simulation step: 1192
                  MF iterations:        3; SZ iterations:      3

Date: 1984/01/06; Stress:  1; Step:  1193; Simulation step: 1193
                  MF iterations:       22; SZ iterations:     22

Date: 1984/01/07; Stress:  1; Step:  1194; Simulation step: 1194
                  MF iterations:       11; SZ iterations:     11

Date: 1984/01/08; Stress:  1; Step:  1195; Simulation step: 1195
                  MF iterations:        3; SZ iterations:      3

Date: 1984/01/09; Stress:  1; Step:  1196; Simulation step: 1196
                  MF iterations:       18; SZ iterations:     18

Date: 1984/01/10; Stress:  1; Step:  1197; Simulation step: 1197
                  MF iterations:       11; SZ iterations:     11

Date: 1984/01/11; Stress:  1; Step:  1198; Simulation step: 1198
                  MF iterations:        3; SZ iterations:      3

Date: 1984/01/12; Stress:  1; Step:  1199; Simulation step: 1199
                  MF iterations:        9; SZ iterations:      9

Date: 1984/01/13; Stress:  1; Step:  1200; Simulation step: 1200
                  MF iterations:       22; SZ iterations:     22

Date: 1984/01/14; Stress:  1; Step:  1201; Simulation step: 1201
                  MF iterations:        4; SZ iterations:      4

Date: 1984/01/15; Stress:  1; Step:  1202; Simulation step: 1202
                  MF iterations:        3; SZ iterations:      3

Date: 1984/01/16; Stress:  1; Step:  1203; Simulation step: 1203
                  MF iterations:        8; SZ iterations:      8

Date: 1984/01/17; Stress:  1; Step:  1204; Simulation step: 1204
                  MF iterations:        2; SZ iterations:      2

Date: 1984/01/18; Stress:  1; Step:  1205; Simulation step: 1205
                  MF iterations:        6; SZ iterations:      6

Date: 1984/01/19; Stress:  1; Step:  1206; Simulation step: 1206
                  MF iterations:        2; SZ iterations:      2

Date: 1984/01/20; Stress:  1; Step:  1207; Simulation step: 1207
                  MF iterations:        4; SZ iterations:      4

Date: 1984/01/21; Stress:  1; Step:  1208; Simulation step: 1208
                  MF iterations:        4; SZ iterations:      4

Date: 1984/01/22; Stress:  1; Step:  1209; Simulation step: 1209
                  MF iterations:       12; SZ iterations:     12

Date: 1984/01/23; Stress:  1; Step:  1210; Simulation step: 1210
                  MF iterations:        3; SZ iterations:      3

Date: 1984/01/24; Stress:  1; Step:  1211; Simulation step: 1211
                  MF iterations:        4; SZ iterations:      4

Date: 1984/01/25; Stress:  1; Step:  1212; Simulation step: 1212
                  MF iterations:        7; SZ iterations:      7

Date: 1984/01/26; Stress:  1; Step:  1213; Simulation step: 1213
                  MF iterations:        5; SZ iterations:      5

Date: 1984/01/27; Stress:  1; Step:  1214; Simulation step: 1214
                  MF iterations:       10; SZ iterations:     10

Date: 1984/01/28; Stress:  1; Step:  1215; Simulation step: 1215
                  MF iterations:        3; SZ iterations:      3

Date: 1984/01/29; Stress:  1; Step:  1216; Simulation step: 1216
                  MF iterations:        4; SZ iterations:      4

Date: 1984/01/30; Stress:  1; Step:  1217; Simulation step: 1217
                  MF iterations:       11; SZ iterations:     11




 Run end date and time (yyyy/mm/dd hh:mm:ss): 2015/09/28 16:37:16

 Elapsed run time:  1 Hours, 40 Minutes, 49 Seconds

 Number of time steps:   1217;  Number of non-convergence:   0
 MF iterations:         21836;  SZ iterations:           21836
 Average MF iterations: 17.94;  Average SZ iterations:   17.94
 Maximum MF iterations:   130;  Maximum SZ iterations:     130

MF iteration distribution:      0   31   82  117   87   54   40   33   43   36
                               37   30   54   32   19   25   25   14   28   25
                               13   17   20   11   18   15   16   25   16   15
                               13   15   21   11   27    6   14    2    9    3
                               12    3   10    8    5    6    3   10    3    4
                                1    8    7    4    4    1    3    2    3    2
                                2    0    0    2    1    0    1    1    3    0
                                0    0    1    0    1    1    1    0    0    5



SZ computation distribution:    0   31   82  117   87   54   40   33   43   36
                               37   30   54   32   19   25   25   14   28   25
                               13   17   20   11   18   15   16   25   16   15
                               13   15   21   11   27    6   14    2    9    3
                               12    3   10    8    5    6    3   10    3    4
                                1    8    7    4    4    1    3    2    3    2
                                2    0    0    2    1    0    1    1    3    0
                                0    0    1    0    1    1    1    0    0    5



  Normal termination of simulation
