1
 SUMMARY VOLUMETRIC BUDGET FOR GSFLOW 
 DATE: 10 27 1983              CUMULATIVE TIME STEP:    1122
 MODFLOW STRESS PERIOD      1     CURRENT TIME STEP:    1122     ITERATIONS:      12

 -----------------------------------------------------------------------------------

   CUMULATIVE VOLUMES               L**3   RATES FOR THIS TIME STEP           L**3/T
   ------------------                      ------------------------

                                     IN                                         IN
                                     --                                         --
        PRECIPITATION =        6721104.51          PRECIPITATION =        3360552.25
           STREAMFLOW =                               STREAMFLOW =                  
     GW BOUNDARY FLOW =                         GW BOUNDARY FLOW =                  


                                    OUT                                        OUT
                                    ---                                        ---
   EVAPOTRANSPIRATION =        9554703.47     EVAPOTRANSPIRATION =        1231187.11
           STREAMFLOW =        2525623.81             STREAMFLOW =         198412.42
     GW BOUNDARY FLOW =                         GW BOUNDARY FLOW =                  

   INFLOWS - OUTFLOWS =       -5359222.78     INFLOWS - OUTFLOWS =        1930952.72
             --------                                   --------

 TOTAL STORAGE CHANGE =       -5389238.39         STORAGE CHANGE =        1917651.80
       --------------                             --------------
         LAND SURFACE =         204562.12           LAND SURFACE =         293576.12
            SOIL ZONE =         392947.05              SOIL ZONE =        1251290.95
     UNSATURATED ZONE =        -368514.79       UNSATURATED ZONE =         -27865.50
       SATURATED ZONE =       -1110150.27         SATURATED ZONE =        -121544.27
                LAKES =       -4508082.50                  LAKES =         522194.50

 OVERALL BUDGET ERROR =          30015.61           BUDGET ERROR =          13300.92


  PERCENT DISCREPANCY =              0.25    PERCENT DISCREPANCY =              0.40



