1
 SUMMARY VOLUMETRIC BUDGET FOR GSFLOW 
 DATE: 11 03 1983              CUMULATIVE TIME STEP:    1129
 MODFLOW STRESS PERIOD      1     CURRENT TIME STEP:    1129     ITERATIONS:      17

 -----------------------------------------------------------------------------------

   CUMULATIVE VOLUMES               L**3   RATES FOR THIS TIME STEP           L**3/T
   ------------------                      ------------------------

                                     IN                                         IN
                                     --                                         --
        PRECIPITATION =        9.3057D+07          PRECIPITATION =        3230734.65
           STREAMFLOW =                               STREAMFLOW =                  
     GW BOUNDARY FLOW =                         GW BOUNDARY FLOW =                  


                                    OUT                                        OUT
                                    ---                                        ---
   EVAPOTRANSPIRATION =        8866548.46     EVAPOTRANSPIRATION =        2961357.89
           STREAMFLOW =        6116114.75             STREAMFLOW =        1569209.63
     GW BOUNDARY FLOW =                         GW BOUNDARY FLOW =                  

   INFLOWS - OUTFLOWS =        7.8074D+07     INFLOWS - OUTFLOWS =       -1299832.86
             --------                                   --------

 TOTAL STORAGE CHANGE =        7.7060D+07         STORAGE CHANGE =       -1341161.75
       --------------                             --------------
         LAND SURFACE =        1.0084D+07           LAND SURFACE =       -3866734.04
            SOIL ZONE =        3.5350D+07              SOIL ZONE =        1336431.68
     UNSATURATED ZONE =         143926.46       UNSATURATED ZONE =          59224.23
       SATURATED ZONE =        1284679.05         SATURATED ZONE =         192592.75
                LAKES =        3.0198D+07                  LAKES =         937323.63

 OVERALL BUDGET ERROR =        1014464.67           BUDGET ERROR =          41328.89


  PERCENT DISCREPANCY =              1.10    PERCENT DISCREPANCY =              0.91



