1
 SUMMARY VOLUMETRIC BUDGET FOR GSFLOW 
 DATE: 09 08 1983              CUMULATIVE TIME STEP:    1073
 MODFLOW STRESS PERIOD      1     CURRENT TIME STEP:    1073     ITERATIONS:      28

 -----------------------------------------------------------------------------------

   CUMULATIVE VOLUMES               L**3   RATES FOR THIS TIME STEP           L**3/T
   ------------------                      ------------------------

                                     IN                                         IN
                                     --                                         --
        PRECIPITATION =                            PRECIPITATION =                  
           STREAMFLOW =                               STREAMFLOW =                  
     GW BOUNDARY FLOW =                         GW BOUNDARY FLOW =                  


                                    OUT                                        OUT
                                    ---                                        ---
   EVAPOTRANSPIRATION =        2.1821D+07     EVAPOTRANSPIRATION =        3195951.90
           STREAMFLOW =        9762283.25             STREAMFLOW =        1401931.88
     GW BOUNDARY FLOW =                         GW BOUNDARY FLOW =                  

   INFLOWS - OUTFLOWS =       -3.1584D+07     INFLOWS - OUTFLOWS =       -4597883.77
             --------                                   --------

 TOTAL STORAGE CHANGE =       -3.1576D+07         STORAGE CHANGE =       -4601747.63
       --------------                             --------------
         LAND SURFACE =       -1711583.82           LAND SURFACE =        -185900.09
            SOIL ZONE =       -7467188.07              SOIL ZONE =        -991190.03
     UNSATURATED ZONE =        -887709.12       UNSATURATED ZONE =        -140388.57
       SATURATED ZONE =       -1719251.28         SATURATED ZONE =        -242578.44
                LAKES =       -1.9790D+07                  LAKES =       -3041690.50

 OVERALL BUDGET ERROR =          -8044.20           BUDGET ERROR =           3863.85


  PERCENT DISCREPANCY =             -0.03    PERCENT DISCREPANCY =              0.08



