                                  MODFLOW-NWT 
      U.S. GEOLOGICAL SURVEY MODULAR FINITE-DIFFERENCE GROUNDWATER-FLOW MODEL
                            VERSION 1.0.9 07/01/2014
                    BASED ON MODFLOW-2005 VERSION 1.11.0 08/08/201

 LIST FILE: ../output/modflow/sagehen_6.list
                         UNIT   26

 OPENING ../input/modflow/sagehen.bas
 FILE TYPE:BAS6   UNIT    8   STATUS:OLD    
 FORMAT:FORMATTED              ACCESS:SEQUENTIAL          

 OPENING ../input/modflow/sagehen.oc
 FILE TYPE:OC   UNIT    9   STATUS:OLD    
 FORMAT:FORMATTED              ACCESS:SEQUENTIAL          

 OPENING ../input/modflow/sagehen.dis
 FILE TYPE:DIS   UNIT   11   STATUS:OLD    
 FORMAT:FORMATTED              ACCESS:SEQUENTIAL          

 OPENING ../input/modflow/sagehen.upw
 FILE TYPE:UPW   UNIT   12   STATUS:OLD    
 FORMAT:FORMATTED              ACCESS:SEQUENTIAL          

 OPENING ../input/modflow/sagehen.nwt
 FILE TYPE:NWT   UNIT   13   STATUS:OLD    
 FORMAT:FORMATTED              ACCESS:SEQUENTIAL          

 OPENING ../input/modflow/sagehen.mnw2
 FILE TYPE:MNW2   UNIT   17   STATUS:OLD    
 FORMAT:FORMATTED              ACCESS:SEQUENTIAL          

 OPENING ../input/modflow/sagehen.uzf
 FILE TYPE:UZF   UNIT   14   STATUS:OLD    
 FORMAT:FORMATTED              ACCESS:SEQUENTIAL          

 OPENING ../input/modflow/sagehen.sfr
 FILE TYPE:SFR   UNIT   15   STATUS:OLD    
 FORMAT:FORMATTED              ACCESS:SEQUENTIAL          

 OPENING ../input/modflow/sagehen.gag
 FILE TYPE:GAGE   UNIT   16   STATUS:OLD    
 FORMAT:FORMATTED              ACCESS:SEQUENTIAL          

 OPENING ../input/modflow/restartdata5.out
 FILE TYPE:IRED   UNIT   90   STATUS:UNKNOWN
 FORMAT:UNFORMATTED            ACCESS:SEQUENTIAL          

 OPENING ../input/modflow/restartdata6.out
 FILE TYPE:IWRT   UNIT   91   STATUS:UNKNOWN
 FORMAT:UNFORMATTED            ACCESS:SEQUENTIAL          

 OPENING ../output/modflow/head_sagehen_6.out
 FILE TYPE:DATA   UNIT   58   STATUS:UNKNOWN
 FORMAT:FORMATTED              ACCESS:SEQUENTIAL          

 OPENING ../output/modflow/uz1_sagehen_6.out
 FILE TYPE:DATA   UNIT   65   STATUS:UNKNOWN
 FORMAT:FORMATTED              ACCESS:SEQUENTIAL          

 OPENING ../output/modflow/uz2_sagehen_6.out
 FILE TYPE:DATA   UNIT   66   STATUS:UNKNOWN
 FORMAT:FORMATTED              ACCESS:SEQUENTIAL          

 OPENING ../output/modflow/uz3_sagehen_6.out
 FILE TYPE:DATA   UNIT   67   STATUS:UNKNOWN
 FORMAT:FORMATTED              ACCESS:SEQUENTIAL          

 OPENING ../output/modflow/uz4_sagehen_6.out
 FILE TYPE:DATA   UNIT   68   STATUS:UNKNOWN
 FORMAT:FORMATTED              ACCESS:SEQUENTIAL          

 OPENING ../output/modflow/sagehen_sfrseg13_6.out
 FILE TYPE:DATA   UNIT   80   STATUS:UNKNOWN
 FORMAT:FORMATTED              ACCESS:SEQUENTIAL          

 OPENING ../output/modflow/sagehen_sfrseg15_6.out
 FILE TYPE:DATA   UNIT   81   STATUS:UNKNOWN
 FORMAT:FORMATTED              ACCESS:SEQUENTIAL          

 OPENING ../output/modflow/sagehen_sfrseg16_6.out
 FILE TYPE:DATA   UNIT   82   STATUS:UNKNOWN
 FORMAT:FORMATTED              ACCESS:SEQUENTIAL          

 OPENING ../output/modflow/sagehen_sfrseg17_6.out
 FILE TYPE:DATA   UNIT   83   STATUS:UNKNOWN
 FORMAT:FORMATTED              ACCESS:SEQUENTIAL          

 BAS -- BASIC PACKAGE, VERSION 1.0.7, 1/15/2013 INPUT READ FROM UNIT    8

 MODFLOW was compiled using mixed precision
 Precision of REAL variables:           6
 Precision of DOUBLE PRECISION variables:          15

 DISCRETIZATION INPUT DATA READ FROM UNIT   11
 #Sagehen Simulation -- Example problem for GSFLOW
 #  (File modified for version 1.1.00 release)
    2 LAYERS        73 ROWS        81 COLUMNS
    2 STRESS PERIOD(S) IN SIMULATION
 MODEL TIME UNIT IS DAYS
 MODEL LENGTH UNIT IS METERS
  Confining bed flag for each layer:
   0   0

                     DELR =   90.0000    

                     DELC =   90.0000    



           TOP ELEVATION OF LAYER 1
 READING ON UNIT   11 WITH FORMAT: (FREE)              

            1           2           3           4           5           6           7           8           9          10
           11          12          13          14          15          16          17          18          19          20
           21          22          23          24          25          26          27          28          29          30
           31          32          33          34          35          36          37          38          39          40
           41          42          43          44          45          46          47          48          49          50
           51          52          53          54          55          56          57          58          59          60
           61          62          63          64          65          66          67          68          69          70
           71          72          73          74          75          76          77          78          79          80
           81
 ........................................................................................................................
   1    0.000       0.000       0.000       0.000       0.000       0.000       0.000       0.000       0.000       0.000    
        0.000       0.000       0.000       0.000       0.000       0.000       0.000       0.000       0.000       0.000    
        0.000       0.000       0.000       0.000       0.000       0.000       0.000       0.000       0.000       0.000    
        0.000       0.000       0.000       0.000       0.000       0.000       0.000       0.000       0.000       0.000    
        0.000       0.000       0.000       0.000       0.000       0.000       0.000       0.000       0.000       0.000    
        0.000       0.000       0.000       0.000       0.000       0.000       0.000       0.000       0.000       0.000    
        0.000       0.000       0.000       2166.       2148.       0.000       0.000       0.000       0.000       0.000    
        0.000       0.000       0.000       0.000       0.000       0.000       0.000       0.000       0.000       0.000    
        0.000    
   2    0.000       0.000       0.000       0.000       0.000       0.000       0.000       0.000       0.000       0.000    
        0.000       0.000       0.000       0.000       0.000       0.000       0.000       0.000       0.000       0.000    
        0.000       0.000       0.000       0.000       0.000       0.000       0.000       0.000       0.000       0.000    
        0.000       0.000       0.000       0.000       0.000       0.000       0.000       0.000       0.000       0.000    
        0.000       0.000       0.000       0.000       0.000       0.000       0.000       0.000       0.000       0.000    
        0.000       0.000       0.000       0.000       0.000       0.000       0.000       0.000       0.000       0.000    
        0.000       0.000       2170.       2158.       2136.       0.000       0.000       0.000       0.000       0.000    
        0.000       0.000       0.000       0.000       0.000       0.000       0.000       0.000       0.000       0.000    
        0.000    
   3    0.000       0.000       0.000       0.000       0.000       0.000       0.000       0.000       0.000       0.000    
        0.000       0.000       0.000       0.000       0.000       0.000       0.000       0.000       0.000       0.000    
        0.000       0.000       0.000       0.000       0.000       0.000       0.000       0.000       0.000       0.000    
        0.000       0.000       0.000       0.000       0.000       0.000       0.000       0.000       0.000       0.000    
        0.000       0.000       0.000       0.000       0.000       0.000       0.000       0.000       0.000       0.000    
        0.000       0.000       0.000       0.000       0.000       0.000       0.000       0.000       0.000       0.000    
        0.000       0.000       2161.       2144.       2124.       0.000       0.000       0.000       0.000       0.000    
        0.000       0.000       0.000       0.000       0.000       0.000       0.000       0.000       0.000       0.000    
        0.000    
   4    0.000       0.000       0.000       0.000       0.000       0.000       0.000       0.000       0.000       0.000    
        0.000       0.000       0.000       0.000       0.000       0.000       0.000       0.000       0.000       0.000    
        0.000       0.000       0.000       0.000       0.000       0.000       0.000       0.000       0.000       0.000    
        0.000       0.000       0.000       0.000       0.000       0.000       0.000       0.000       0.000       0.000    
        0.000       0.000       0.000       0.000       0.000       0.000       0.000       0.000       0.000       0.000    
        0.000       0.000       0.000       0.000       0.000       0.000       0.000       0.000       0.000       0.000    
        0.000       2158.       2152.       2128.       2121.       0.000       0.000       0.000       0.000       0.000    
        0.000       0.000       0.000       0.000       0.000       0.000       0.000       0.000       0.000       0.000    
        0.000    
   5    0.000       0.000       0.000       0.000       0.000       0.000       0.000       0.000       0.000       0.000    
        0.000       0.000       0.000       0.000       0.000       0.000       0.000       0.000       0.000       0.000    
        0.000       0.000       0.000       0.000       0.000       0.000       0.000       0.000       0.000       0.000    
        0.000       0.000       0.000       0.000       0.000       0.000       0.000       0.000       0.000       0.000    
        0.000       0.000       0.000       0.000       0.000       0.000       0.000       0.000       0.000       0.000    
        0.000       0.000       0.000       0.000       0.000       0.000       0.000       0.000       0.000       0.000    
        0.000       2153.       2141.       2122.       2119.       2119.       0.000       0.000       0.000       0.000    
        0.000       0.000       0.000       0.000       0.000       0.000       0.000       0.000       0.000       0.000    
        0.000    
   6    0.000       0.000       0.000       0.000       0.000       0.000       0.000       0.000       0.000       0.000    
        0.000       0.000       0.000       0.000       0.000       0.000       0.000       0.000       0.000       0.000    
        0.000       0.000       0.000       0.000       0.000       0.000       0.000       0.000       0.000       0.000    
        0.000       0.000       0.000       0.000       0.000       0.000       0.000       0.000       0.000       0.000    
        0.000       0.000       0.000       0.000       0.000       0.000       0.000       0.000       0.000       0.000    
        0.000       0.000       0.000       0.000       0.000       0.000       0.000       0.000       0.000       0.000    
        0.000       2149.       2134.       2121.       2119.       2118.       2116.       0.000       0.000       0.000    
        0.000       0.000       0.000       0.000       0.000       0.000       0.000       0.000       0.000       0.000    
        0.000    
   7    0.000       0.000       0.000       0.000       0.000       0.000       0.000       0.000       0.000       0.000    
        0.000       0.000       0.000       0.000       0.000       0.000       0.000       0.000       0.000       0.000    
        0.000       0.000       0.000       0.000       0.000       0.000       0.000       0.000       0.000       0.000    
        0.000       0.000       0.000       0.000       0.000       0.000       0.000       0.000       0.000       0.000    
        0.000       0.000       0.000       0.000       0.000       0.000       0.000       0.000       0.000       0.000    
        0.000       0.000       0.000       0.000       0.000       0.000       0.000       0.000       0.000       0.000    
        2156.       2151.       2136.       2125.       2119.       2115.       2114.       2116.       0.000       0.000    
        0.000       0.000       0.000       0.000       0.000       0.000       0.000       0.000       0.000       0.000    
        0.000    
   8    0.000       0.000       0.000       0.000       0.000       0.000       0.000       0.000       0.000       0.000    
        0.000       0.000       0.000       0.000       0.000       0.000       0.000       0.000       0.000       0.000    
        0.000       0.000       0.000       0.000       0.000       0.000       0.000       0.000       0.000       0.000    
        0.000       0.000       0.000       0.000       0.000       0.000       0.000       0.000       0.000       0.000    
        0.000       0.000       0.000       0.000       0.000       0.000       0.000       0.000       0.000       0.000    
        0.000       0.000       0.000       0.000       0.000       0.000       0.000       0.000       0.000       0.000    
        2160.       2153.       2142.       2130.       2117.       2111.       2112.       2116.       2120.       2123.    
        2125.       0.000       0.000       0.000       0.000       0.000       0.000       0.000       0.000       0.000    
        0.000    
   9    0.000       0.000       0.000       0.000       0.000       0.000       0.000       0.000       0.000       0.000    
        0.000       0.000       0.000       0.000       0.000       0.000       0.000       0.000       0.000       0.000    
        0.000       0.000       0.000       0.000       0.000       0.000       0.000       0.000       0.000       0.000    
        0.000       0.000       0.000       0.000       0.000       0.000       0.000       0.000       0.000       0.000    
        0.000       0.000       0.000       0.000       0.000       0.000       0.000       0.000       2185.       2184.    
        0.000       0.000       0.000       0.000       0.000       0.000       0.000       0.000       2152.       2156.    
        2155.       2146.       2138.       2128.       2114.       2109.       2110.       2114.       2120.       2124.    
        2126.       2122.       2120.       2121.       2123.       0.000       0.000       0.000       0.000       0.000    
        0.000    
  10    0.000       0.000       0.000       0.000       0.000       0.000       0.000       0.000       0.000       0.000    
        0.000       0.000       0.000       0.000       0.000       0.000       0.000       0.000       0.000       0.000    
        0.000       0.000       0.000       0.000       0.000       0.000       0.000       0.000       0.000       0.000    
        0.000       0.000       0.000       0.000       0.000       0.000       0.000       0.000       0.000       0.000    
        0.000       0.000       0.000       0.000       0.000       0.000       0.000       2188.       2185.       2184.    
        2186.       2181.       2172.       0.000       0.000       0.000       2153.       2151.       2149.       2149.    
        2147.       2142.       2133.       2121.       2112.       2107.       2108.       2110.       2120.       2125.    
        2126.       2123.       2118.       2119.       2121.       2123.       0.000       0.000       0.000       0.000    
        0.000    
  11    0.000       0.000       0.000       0.000       0.000       0.000       0.000       0.000       0.000       0.000    
        0.000       0.000       0.000       0.000       0.000       0.000       0.000       0.000       0.000       0.000    
        0.000       0.000       0.000       0.000       0.000       0.000       0.000       0.000       0.000       0.000    
        0.000       0.000       0.000       0.000       0.000       0.000       0.000       0.000       0.000       0.000    
        0.000       0.000       0.000       0.000       0.000       0.000       2194.       2186.       2178.       2179.    
        2176.       2169.       2166.       2165.       2163.       2160.       2156.       2151.       2147.       2144.    
        2142.       2138.       2130.       2118.       2110.       2106.       2106.       2108.       2116.       2123.    
        2125.       2123.       2117.       2112.       2114.       2118.       0.000       0.000       0.000       0.000    
        0.000    
  12    0.000       0.000       0.000       0.000       0.000       0.000       0.000       0.000       0.000       0.000    
        0.000       0.000       0.000       0.000       0.000       0.000       0.000       0.000       0.000       0.000    
        0.000       0.000       0.000       0.000       0.000       0.000       0.000       0.000       0.000       0.000    
        0.000       0.000       0.000       0.000       0.000       0.000       0.000       0.000       0.000       0.000    
        0.000       0.000       0.000       0.000       0.000       0.000       2193.       2182.       2174.       2167.    
        2158.       2156.       2157.       2161.       2162.       2160.       2154.       2148.       2144.       2139.    
        2136.       2136.       2131.       2118.       2110.       2106.       2105.       2106.       2112.       2117.    
        2120.       2119.       2115.       2110.       2108.       2112.       2117.       0.000       0.000       0.000    
        0.000    
  13    0.000       0.000       0.000       0.000       0.000       0.000       0.000       0.000       0.000       0.000    
        0.000       0.000       0.000       0.000       0.000       0.000       0.000       0.000       0.000       0.000    
        0.000       0.000       0.000       0.000       0.000       0.000       0.000       0.000       0.000       0.000    
        0.000       0.000       0.000       0.000       0.000       0.000       0.000       0.000       0.000       0.000    
        0.000       0.000       0.000       0.000       2207.       2197.       2187.       2179.       2171.       2159.    
        2150.       2144.       2145.       2152.       2157.       2157.       2151.       2145.       2140.       2135.    
        2132.       2131.       2127.       2119.       2110.       2107.       2103.       2102.       2107.       2110.    
        2112.       2114.       2112.       2107.       2102.       2109.       2117.       2123.       0.000       0.000    
        0.000    
  14    0.000       0.000       0.000       0.000       0.000       0.000       0.000       0.000       0.000       0.000    
        0.000       0.000       0.000       0.000       0.000       0.000       0.000       0.000       0.000       0.000    
        0.000       0.000       0.000       0.000       0.000       0.000       0.000       0.000       0.000       0.000    
        0.000       0.000       0.000       0.000       0.000       0.000       0.000       0.000       0.000       0.000    
        0.000       2219.       2213.       2209.       2200.       2185.       2179.       2172.       2161.       2156.    
        2151.       2147.       2135.       2140.       2147.       2149.       2147.       2142.       2137.       2132.    
        2129.       2126.       2122.       2117.       2111.       2105.       2100.       2098.       2101.       2104.    
        2107.       2108.       2106.       2100.       2099.       2108.       2117.       2124.       2128.       0.000    
        0.000    
  15    0.000       0.000       0.000       0.000       0.000       0.000       0.000       0.000       0.000       0.000    
        0.000       0.000       0.000       0.000       0.000       0.000       0.000       0.000       0.000       0.000    
        0.000       0.000       0.000       0.000       0.000       0.000       0.000       0.000       0.000       0.000    
        0.000       0.000       0.000       0.000       0.000       0.000       0.000       0.000       0.000       0.000    
        2225.       2218.       2209.       2206.       2191.       2180.       2174.       2167.       2158.       2155.    
        2151.       2148.       2133.       2128.       2132.       2136.       2139.       2138.       2134.       2128.    
        2125.       2121.       2118.       2115.       2111.       2105.       2099.       2094.       2095.       2097.    
        2101.       2102.       2099.       2095.       2095.       2103.       2113.       2121.       2127.       2131.    
        0.000    
  16    0.000       0.000       0.000       0.000       0.000       0.000       0.000       0.000       0.000       0.000    
        0.000       0.000       0.000       0.000       0.000       0.000       0.000       0.000       0.000       0.000    
        0.000       0.000       0.000       0.000       0.000       0.000       0.000       0.000       0.000       0.000    
        0.000       0.000       0.000       0.000       0.000       0.000       0.000       0.000       0.000       2230.    
        2222.       2224.       2226.       2215.       2198.       2188.       2179.       2168.       2158.       2154.    
        2149.       2142.       2131.       2122.       2117.       2121.       2131.       2131.       2127.       2123.    
        2120.       2116.       2113.       2111.       2109.       2105.       2099.       2091.       2091.       2094.    
        2097.       2097.       2092.       2088.       2089.       2097.       2109.       2121.       2126.       2128.    
        0.000    
  17    0.000       0.000       0.000       0.000       0.000       0.000       0.000       0.000       0.000       0.000    
        0.000       0.000       0.000       0.000       0.000       0.000       0.000       0.000       0.000       0.000    
        0.000       0.000       0.000       0.000       0.000       0.000       0.000       0.000       0.000       0.000    
        0.000       0.000       0.000       0.000       0.000       0.000       0.000       0.000       0.000       2235.    
        2240.       2241.       2235.       2220.       2202.       2191.       2181.       2175.       2164.       2155.    
        2149.       2142.       2135.       2126.       2107.       2107.       2121.       2122.       2119.       2116.    
        2112.       2110.       2109.       2107.       2106.       2104.       2100.       2090.       2087.       2090.    
        2092.       2091.       2085.       2082.       2081.       2090.       2106.       2120.       2123.       2123.    
        0.000    
  18    0.000       0.000       0.000       0.000       0.000       0.000       0.000       0.000       0.000       0.000    
        0.000       0.000       0.000       0.000       0.000       0.000       0.000       0.000       0.000       0.000    
        0.000       0.000       0.000       0.000       0.000       0.000       0.000       0.000       0.000       0.000    
        0.000       0.000       0.000       0.000       0.000       0.000       0.000       0.000       0.000       2248.    
        2242.       2233.       2221.       2207.       2193.       2181.       2171.       2165.       2157.       2150.    
        2146.       2140.       2136.       2123.       2100.       2094.       2109.       2113.       2111.       2108.    
        2106.       2105.       2105.       2105.       2103.       2102.       2099.       2090.       2083.       2088.    
        2089.       2088.       2085.       2076.       2075.       2082.       2096.       2110.       2115.       2119.    
        0.000    
  19    0.000       0.000       0.000       0.000       0.000       0.000       0.000       0.000       0.000       0.000    
        0.000       0.000       0.000       0.000       0.000       0.000       0.000       0.000       0.000       0.000    
        0.000       0.000       0.000       0.000       0.000       0.000       0.000       0.000       0.000       0.000    
        0.000       0.000       0.000       0.000       2262.       2252.       2253.       2251.       2243.       2234.    
        2224.       2213.       2203.       2191.       2180.       2170.       2162.       2153.       2143.       2136.    
        2130.       2126.       2124.       2109.       2087.       2086.       2098.       2102.       2101.       2101.    
        2100.       2099.       2099.       2102.       2101.       2100.       2096.       2088.       2080.       2085.    
        2086.       2084.       2081.       2072.       2070.       2076.       2085.       2097.       2107.       2113.    
        2115.    
  20    0.000       0.000       0.000       0.000       0.000       0.000       0.000       0.000       0.000       0.000    
        0.000       0.000       0.000       0.000       0.000       0.000       0.000       0.000       0.000       0.000    
        0.000       0.000       0.000       0.000       0.000       0.000       0.000       0.000       0.000       0.000    
        0.000       0.000       2270.       2256.       2240.       2225.       2228.       2228.       2222.       2213.    
        2204.       2193.       2182.       2172.       2162.       2155.       2150.       2146.       2137.       2124.    
        2112.       2102.       2100.       2090.       2073.       2075.       2085.       2093.       2092.       2093.    
        2094.       2094.       2096.       2099.       2100.       2098.       2091.       2085.       2075.       2077.    
        2078.       2073.       2068.       2065.       2063.       2066.       2074.       2085.       2100.       2108.    
        2112.    
  21    0.000       0.000       0.000       0.000       0.000       0.000       0.000       0.000       0.000       0.000    
        0.000       0.000       0.000       0.000       0.000       0.000       0.000       0.000       0.000       0.000    
        0.000       0.000       0.000       0.000       0.000       0.000       0.000       0.000       0.000       2284.    
        2273.       2256.       2243.       2231.       2213.       2196.       2201.       2202.       2199.       2192.    
        2184.       2174.       2164.       2153.       2145.       2139.       2134.       2129.       2124.       2115.    
        2103.       2086.       2075.       2066.       2060.       2064.       2074.       2082.       2083.       2084.    
        2086.       2090.       2094.       2097.       2097.       2091.       2085.       2078.       2069.       2063.    
        2066.       2062.       2060.       2060.       2058.       2059.       2064.       2075.       2093.       2102.    
        2106.    
  22    0.000       0.000       0.000       0.000       0.000       0.000       0.000       0.000       0.000       0.000    
        0.000       0.000       0.000       0.000       0.000       0.000       0.000       0.000       0.000       0.000    
        0.000       0.000       0.000       0.000       0.000       0.000       2280.       2278.       2273.       2264.    
        2245.       2229.       2218.       2207.       2191.       2173.       2179.       2181.       2178.       2172.    
        2164.       2155.       2145.       2134.       2124.       2119.       2116.       2113.       2108.       2104.    
        2096.       2081.       2065.       2055.       2050.       2055.       2066.       2073.       2074.       2077.    
        2083.       2087.       2091.       2093.       2089.       2084.       2079.       2074.       2065.       2058.    
        2056.       2056.       2057.       2057.       2057.       2057.       2057.       2068.       2084.       2095.    
        2100.    
  23    0.000       0.000       0.000       0.000       0.000       0.000       0.000       0.000       0.000       0.000    
        0.000       0.000       0.000       0.000       0.000       0.000       0.000       0.000       0.000       0.000    
        0.000       0.000       0.000       0.000       2319.       2302.       2278.       2261.       2248.       2234.    
        2216.       2204.       2196.       2187.       2175.       2164.       2164.       2164.       2160.       2153.    
        2145.       2132.       2119.       2110.       2106.       2103.       2101.       2097.       2092.       2089.    
        2088.       2080.       2062.       2048.       2042.       2048.       2056.       2060.       2064.       2072.    
        2080.       2086.       2089.       2089.       2084.       2078.       2075.       2070.       2063.       2055.    
        2052.       2054.       2056.       2058.       2059.       2058.       2057.       2063.       2075.       2090.    
        2096.    
  24    0.000       0.000       0.000       0.000       0.000       0.000       0.000       0.000       0.000       0.000    
        0.000       0.000       0.000       0.000       0.000       0.000       0.000       0.000       0.000       0.000    
        0.000       0.000       2330.       2316.       2300.       2283.       2257.       2236.       2223.       2206.    
        2193.       2185.       2178.       2171.       2163.       2156.       2151.       2149.       2143.       2135.    
        2124.       2111.       2101.       2094.       2090.       2087.       2083.       2079.       2076.       2077.    
        2078.       2072.       2059.       2044.       2036.       2038.       2046.       2049.       2056.       2071.    
        2077.       2082.       2087.       2088.       2080.       2073.       2071.       2067.       2062.       2053.    
        2049.       2052.       2058.       2064.       2069.       2069.       2064.       2065.       2077.       2096.    
        2107.    
  25    0.000       0.000       0.000       0.000       0.000       0.000       0.000       0.000       0.000       0.000    
        0.000       0.000       0.000       0.000       0.000       0.000       0.000       0.000       0.000       0.000    
        2371.       2337.       2311.       2295.       2281.       2265.       2240.       2215.       2196.       2184.    
        2177.       2170.       2163.       2157.       2151.       2147.       2142.       2133.       2128.       2119.    
        2107.       2096.       2087.       2080.       2074.       2070.       2066.       2064.       2064.       2067.    
        2068.       2065.       2054.       2040.       2031.       2028.       2033.       2038.       2049.       2065.    
        2073.       2078.       2083.       2086.       2077.       2071.       2068.       2066.       2060.       2051.    
        2046.       2051.       2057.       2065.       2071.       2075.       2073.       2071.       2080.       2098.    
        0.000    
  26    0.000       0.000       0.000       0.000       0.000       0.000       0.000       0.000       0.000       0.000    
        0.000       0.000       0.000       0.000       0.000       0.000       0.000       0.000       2380.       2373.    
        2353.       2323.       2295.       2282.       2270.       2250.       2226.       2200.       2177.       2168.    
        2163.       2157.       2151.       2145.       2139.       2136.       2133.       2122.       2115.       2107.    
        2096.       2084.       2072.       2066.       2062.       2056.       2053.       2051.       2054.       2057.    
        2059.       2059.       2052.       2043.       2033.       2023.       2022.       2030.       2042.       2058.    
        2067.       2071.       2077.       2079.       2072.       2066.       2065.       2064.       2060.       2048.    
        2046.       2047.       2053.       2063.       2071.       2078.       2082.       2076.       2079.       0.000    
        0.000    
  27    0.000       0.000       0.000       0.000       0.000       0.000       0.000       0.000       0.000       0.000    
        0.000       0.000       0.000       0.000       0.000       0.000       0.000       2370.       2364.       2354.    
        2341.       2313.       2282.       2272.       2259.       2239.       2216.       2191.       2166.       2156.    
        2151.       2146.       2140.       2135.       2130.       2125.       2122.       2111.       2106.       2100.    
        2088.       2072.       2061.       2055.       2050.       2045.       2041.       2040.       2044.       2048.    
        2050.       2052.       2049.       2042.       2032.       2018.       2018.       2025.       2037.       2052.    
        2062.       2067.       2071.       2072.       2065.       2060.       2061.       2062.       2060.       2051.    
        2046.       2045.       2048.       2060.       2073.       2081.       0.000       0.000       0.000       0.000    
        0.000    
  28    0.000       0.000       0.000       0.000       0.000       0.000       0.000       0.000       0.000       0.000    
        0.000       0.000       0.000       0.000       0.000       0.000       2370.       2363.       2351.       2342.    
        2328.       2303.       2273.       2260.       2246.       2227.       2207.       2187.       2165.       2148.    
        2141.       2134.       2130.       2125.       2120.       2117.       2114.       2107.       2100.       2092.    
        2080.       2065.       2053.       2047.       2042.       2037.       2033.       2033.       2036.       2039.    
        2043.       2045.       2043.       2039.       2030.       2018.       2013.       2020.       2032.       2046.    
        2055.       2061.       2063.       2062.       2059.       2055.       2056.       2058.       2058.       2057.    
        2049.       2049.       2044.       2056.       2068.       2082.       0.000       0.000       0.000       0.000    
        0.000    
  29    0.000       0.000       0.000       0.000       0.000       0.000       0.000       0.000       0.000       0.000    
        0.000       2467.       2440.       2419.       2398.       2377.       2365.       2353.       2342.       2331.    
        2318.       2292.       2266.       2248.       2233.       2216.       2201.       2183.       2164.       2148.    
        2137.       2129.       2123.       2117.       2113.       2110.       2106.       2101.       2096.       2082.    
        2070.       2058.       2047.       2040.       2035.       2030.       2027.       2026.       2028.       2031.    
        2035.       2038.       2037.       2033.       2026.       2014.       2008.       2016.       2029.       2039.    
        2046.       2052.       2053.       2053.       2052.       2049.       2050.       2052.       2057.       2057.    
        2052.       2050.       2044.       2050.       2061.       2071.       0.000       0.000       0.000       0.000    
        0.000    
  30    0.000       0.000       0.000       0.000       0.000       0.000       0.000       0.000       0.000       0.000    
        2510.       2464.       2434.       2412.       2391.       2374.       2358.       2344.       2335.       2325.    
        2311.       2285.       2268.       2248.       2227.       2209.       2190.       2175.       2164.       2152.    
        2137.       2128.       2119.       2111.       2105.       2101.       2096.       2090.       2083.       2071.    
        2060.       2052.       2044.       2040.       2038.       2033.       2025.       2022.       2022.       2024.    
        2028.       2031.       2031.       2027.       2020.       2008.       2003.       2015.       2027.       2031.    
        2035.       2041.       2043.       2046.       2046.       2043.       2044.       2047.       2054.       2056.    
        2055.       2052.       2042.       2045.       2052.       2058.       0.000       0.000       0.000       0.000    
        0.000    
  31    0.000       0.000       0.000       0.000       0.000       0.000       0.000       0.000       0.000       2544.    
        2509.       2466.       2438.       2412.       2389.       2370.       2355.       2342.       2333.       2320.    
        2306.       2287.       2270.       2250.       2230.       2214.       2194.       2173.       2162.       2149.    
        2136.       2126.       2119.       2110.       2100.       2094.       2086.       2079.       2073.       2063.    
        2055.       2050.       2054.       2051.       2050.       2044.       2033.       2022.       2018.       2018.    
        2020.       2023.       2026.       2023.       2014.       2001.       1999.       2011.       2021.       2022.    
        2026.       2031.       2036.       2040.       2040.       2036.       2037.       2043.       2052.       2056.    
        2056.       2055.       2038.       2040.       2046.       2049.       0.000       0.000       0.000       0.000    
        0.000    
  32    0.000       0.000       0.000       0.000       0.000       0.000       0.000       0.000       2555.       2543.    
        2519.       2480.       2451.       2418.       2387.       2368.       2355.       2343.       2335.       2325.    
        2309.       2294.       2276.       2253.       2231.       2212.       2192.       2179.       2172.       2157.    
        2141.       2130.       2123.       2115.       2104.       2094.       2087.       2082.       2077.       2067.    
        2058.       2059.       2072.       2075.       2074.       2062.       2040.       2024.       2017.       2013.    
        2010.       2012.       2018.       2016.       2011.       1999.       1994.       1999.       2008.       2010.    
        2017.       2023.       2030.       2035.       2034.       2029.       2032.       2040.       2049.       2054.    
        2050.       2048.       2034.       2036.       2041.       2044.       0.000       0.000       0.000       0.000    
        0.000    
  33    0.000       0.000       0.000       0.000       0.000       0.000       0.000       0.000       2554.       2551.    
        2517.       2481.       2450.       2419.       2388.       2374.       2362.       2353.       2346.       2336.    
        2320.       2301.       2274.       2253.       2232.       2212.       2199.       2191.       2180.       2162.    
        2145.       2134.       2126.       2116.       2108.       2102.       2095.       2088.       2084.       2070.    
        2061.       2067.       2077.       2079.       2078.       2068.       2046.       2027.       2019.       2014.    
        2011.       2004.       2005.       2008.       2005.       1999.       1991.       1991.       1994.       2000.    
        2006.       2014.       2021.       2025.       2024.       2021.       2027.       2037.       2044.       2047.    
        2044.       2042.       2030.       2029.       2037.       2039.       0.000       0.000       0.000       0.000    
        0.000    
  34    0.000       0.000       0.000       0.000       0.000       0.000       2558.       2548.       2550.       2538.    
        2508.       2471.       2442.       2415.       2396.       2386.       2379.       2373.       2367.       2356.    
        2336.       2307.       2276.       2257.       2239.       2221.       2211.       2207.       2195.       2172.    
        2155.       2142.       2130.       2121.       2114.       2107.       2099.       2095.       2089.       2075.    
        2066.       2068.       2077.       2080.       2074.       2060.       2049.       2033.       2023.       2020.    
        2016.       2004.       1994.       1991.       1993.       1991.       1990.       1987.       1986.       1988.    
        1993.       2002.       2008.       2010.       2010.       2012.       2022.       2032.       2039.       2040.    
        2036.       2035.       2026.       2018.       2029.       2034.       0.000       0.000       0.000       0.000    
        0.000    
  35    0.000       0.000       0.000       0.000       0.000       2574.       2555.       2542.       2536.       2524.    
        2491.       2455.       2430.       2409.       2397.       2390.       2382.       2377.       2372.       2367.    
        2348.       2318.       2281.       2260.       2246.       2224.       2211.       2205.       2197.       2177.    
        2161.       2147.       2136.       2128.       2119.       2111.       2104.       2099.       2092.       2077.    
        2070.       2072.       2080.       2079.       2065.       2055.       2045.       2033.       2028.       2026.    
        2015.       2003.       1995.       1990.       1986.       1984.       1989.       1989.       1981.       1981.    
        1983.       1988.       1993.       1996.       1997.       2004.       2014.       2024.       2031.       2032.    
        2030.       2028.       2019.       2011.       2020.       2028.       0.000       0.000       0.000       0.000    
        0.000    
  36    0.000       0.000       0.000       0.000       0.000       2571.       2554.       2536.       2526.       2504.    
        2471.       2440.       2417.       2397.       2387.       2379.       2368.       2359.       2358.       2359.    
        2352.       2330.       2293.       2268.       2248.       2232.       2218.       2197.       2185.       2173.    
        2161.       2151.       2142.       2132.       2121.       2113.       2107.       2103.       2094.       2077.    
        2074.       2080.       2085.       2084.       2066.       2055.       2044.       2037.       2037.       2033.    
        2017.       2005.       1997.       1992.       1987.       1983.       1980.       1979.       1977.       1976.    
        1976.       1978.       1980.       1982.       1989.       1998.       2006.       2013.       2018.       2019.    
        2023.       2019.       2007.       2009.       2020.       2026.       0.000       0.000       0.000       0.000    
        0.000    
  37    0.000       0.000       0.000       0.000       0.000       2571.       2554.       2534.       2514.       2484.    
        2453.       2423.       2402.       2383.       2369.       2359.       2349.       2342.       2339.       2339.    
        2338.       2326.       2298.       2269.       2254.       2249.       2235.       2216.       2200.       2187.    
        2175.       2158.       2144.       2133.       2123.       2117.       2112.       2104.       2092.       2081.    
        2088.       2093.       2093.       2090.       2079.       2061.       2048.       2048.       2051.       2045.    
        2028.       2012.       2000.       1994.       1989.       1985.       1982.       1979.       1975.       1974.    
        1973.       1973.       1973.       1976.       1984.       1991.       1996.       2000.       2004.       2003.    
        2001.       1997.       1995.       2007.       2017.       2023.       0.000       0.000       0.000       0.000    
        0.000    
  38    0.000       0.000       0.000       0.000       0.000       2571.       2554.       2534.       2502.       2471.    
        2438.       2412.       2388.       2367.       2359.       2351.       2344.       2337.       2332.       2326.    
        2318.       2308.       2294.       2288.       2276.       2259.       2241.       2226.       2210.       2197.    
        2181.       2161.       2146.       2137.       2129.       2121.       2114.       2104.       2090.       2094.    
        2105.       2105.       2102.       2096.       2087.       2068.       2055.       2058.       2063.       2055.    
        2037.       2016.       2005.       1998.       1992.       1987.       1985.       1982.       1978.       1974.    
        1972.       1971.       1970.       1973.       1979.       1983.       1986.       1986.       1989.       1988.    
        1984.       1977.       1982.       1995.       2011.       2016.       2018.       0.000       0.000       0.000    
        0.000    
  39    0.000       0.000       0.000       0.000       0.000       2573.       2556.       2525.       2487.       2455.    
        2426.       2405.       2382.       2364.       2359.       2352.       2346.       2341.       2340.       2338.    
        2332.       2326.       2316.       2305.       2285.       2267.       2251.       2235.       2215.       2197.    
        2182.       2163.       2150.       2142.       2133.       2125.       2115.       2102.       2094.       2108.    
        2116.       2113.       2109.       2103.       2090.       2075.       2066.       2068.       2074.       2060.    
        2040.       2024.       2012.       2004.       1998.       1994.       1991.       1987.       1983.       1976.    
        1975.       1973.       1970.       1968.       1968.       1972.       1975.       1973.       1973.       1972.    
        1970.       1968.       1971.       1982.       1999.       2013.       2015.       0.000       0.000       0.000    
        0.000    
  40    0.000       0.000       0.000       0.000       2577.       2567.       2542.       2504.       2475.       2440.    
        2412.       2399.       2388.       2372.       2367.       2361.       2355.       2355.       2356.       2357.    
        2354.       2344.       2328.       2311.       2295.       2277.       2258.       2235.       2213.       2196.    
        2182.       2166.       2153.       2144.       2136.       2126.       2115.       2103.       2103.       2119.    
        2126.       2122.       2117.       2115.       2100.       2082.       2075.       2071.       2078.       2075.    
        2058.       2034.       2020.       2013.       2008.       2004.       1999.       1999.       1995.       1989.    
        1986.       1976.       1974.       1973.       1971.       1965.       1962.       1961.       1960.       1959.    
        1959.       1960.       1963.       1971.       1986.       2003.       2010.       2010.       0.000       0.000    
        0.000    
  41    0.000       0.000       0.000       0.000       2577.       2555.       2522.       2486.       2461.       2427.    
        2402.       2394.       2388.       2385.       2385.       2376.       2374.       2374.       2372.       2371.    
        2367.       2350.       2328.       2311.       2294.       2275.       2255.       2230.       2213.       2200.    
        2187.       2172.       2156.       2144.       2137.       2125.       2114.       2105.       2114.       2132.    
        2141.       2133.       2123.       2121.       2118.       2095.       2082.       2080.       2089.       2088.    
        2076.       2048.       2033.       2027.       2024.       2022.       2017.       2016.       2010.       2011.    
        2003.       1986.       1979.       1981.       1988.       1993.       1987.       1971.       1959.       1957.    
        1953.       1953.       1952.       1958.       1967.       1977.       1985.       1988.       1995.       0.000    
        0.000    
  42    0.000       0.000       0.000       2590.       2572.       2540.       2506.       2472.       2444.       2417.    
        2401.       2397.       2400.       2406.       2407.       2402.       2401.       2392.       2378.       2367.    
        2351.       2336.       2319.       2304.       2287.       2270.       2253.       2231.       2216.       2206.    
        2193.       2178.       2161.       2147.       2137.       2124.       2113.       2109.       2122.       2143.    
        2152.       2145.       2131.       2121.       2119.       2111.       2091.       2093.       2101.       2097.    
        2087.       2069.       2057.       2047.       2046.       2042.       2036.       2032.       2027.       2020.    
        2006.       1992.       1986.       1991.       2001.       2006.       2005.       2001.       1980.       1957.    
        1951.       1947.       1944.       1946.       1951.       1957.       1964.       1966.       1965.       0.000    
        0.000    
  43    0.000       0.000       0.000       2594.       2561.       2522.       2493.       2469.       2441.       2420.    
        2410.       2414.       2418.       2425.       2428.       2427.       2421.       2405.       2374.       2353.    
        2338.       2323.       2310.       2297.       2281.       2266.       2250.       2237.       2225.       2207.    
        2196.       2181.       2165.       2149.       2142.       2136.       2126.       2113.       2120.       2139.    
        2147.       2144.       2137.       2124.       2118.       2113.       2099.       2104.       2110.       2108.    
        2102.       2094.       2083.       2074.       2068.       2063.       2053.       2043.       2032.       2019.    
        2006.       1995.       1993.       2002.       2010.       2013.       2014.       2012.       2000.       1968.    
        1956.       1949.       1944.       1941.       1940.       1942.       1945.       1946.       1942.       1937.    
        0.000    
  44    0.000       0.000       2611.       2583.       2556.       2533.       2505.       2478.       2453.       2434.    
        2428.       2430.       2434.       2443.       2445.       2443.       2437.       2421.       2393.       2367.    
        2344.       2324.       2310.       2297.       2283.       2272.       2257.       2241.       2230.       2215.    
        2199.       2182.       2169.       2156.       2149.       2146.       2143.       2127.       2118.       2129.    
        2138.       2140.       2139.       2131.       2118.       2108.       2102.       2110.       2115.       2120.    
        2120.       2115.       2107.       2100.       2091.       2080.       2067.       2053.       2032.       2020.    
        2011.       2000.       2001.       2011.       2018.       2021.       2020.       2015.       1998.       1976.    
        1961.       1953.       1947.       1942.       1939.       1936.       1935.       1934.       1932.       1928.    
        0.000    
  45    0.000       2631.       2590.       2556.       2537.       2533.       2515.       2491.       2462.       2446.    
        2444.       2443.       2452.       2456.       2458.       2459.       2457.       2441.       2414.       2385.    
        2356.       2333.       2315.       2304.       2288.       2276.       2261.       2242.       2229.       2217.    
        2201.       2184.       2173.       2163.       2156.       2152.       2149.       2138.       2122.       2124.    
        2133.       2140.       2144.       2141.       2128.       2113.       2105.       2110.       2119.       2127.    
        2133.       2135.       2134.       2127.       2115.       2098.       2077.       2058.       2035.       2022.    
        2014.       2006.       2008.       2015.       2025.       2026.       2024.       2014.       1997.       1978.    
        1965.       1955.       1949.       1944.       1941.       1938.       1936.       1934.       1932.       1928.    
        0.000    
  46    0.000       2624.       2572.       2538.       2536.       2535.       2523.       2501.       2480.       2462.    
        2452.       2456.       2466.       2468.       2470.       2473.       2476.       2463.       2431.       2403.    
        2372.       2347.       2327.       2311.       2299.       2286.       2266.       2244.       2227.       2215.    
        2203.       2188.       2175.       2166.       2159.       2154.       2149.       2138.       2126.       2125.    
        2133.       2143.       2150.       2152.       2142.       2125.       2109.       2111.       2125.       2136.    
        2146.       2153.       2157.       2151.       2133.       2113.       2086.       2059.       2039.       2027.    
        2020.       2011.       2012.       2018.       2026.       2029.       2025.       2012.       2000.       1977.    
        1965.       1956.       1950.       1946.       1943.       1943.       1940.       1938.       0.000       0.000    
        0.000    
  47    2649.       2623.       2570.       2541.       2529.       2521.       2521.       2517.       2493.       2473.    
        2473.       2481.       2482.       2481.       2483.       2486.       2489.       2473.       2442.       2415.    
        2387.       2358.       2337.       2321.       2309.       2296.       2272.       2249.       2229.       2212.    
        2202.       2189.       2176.       2167.       2159.       2152.       2145.       2134.       2127.       2128.    
        2136.       2147.       2156.       2161.       2157.       2138.       2117.       2112.       2128.       2143.    
        2158.       2172.       2175.       2164.       2147.       2124.       2092.       2062.       2043.       2033.    
        2027.       2018.       2019.       2022.       2027.       2029.       2020.       2012.       1999.       1982.    
        1971.       1961.       1954.       1950.       1951.       1950.       1948.       1944.       0.000       0.000    
        0.000    
  48    0.000       2631.       2589.       2554.       2537.       2525.       2540.       2536.       2505.       2496.    
        2499.       2504.       2500.       2494.       2496.       2500.       2500.       2484.       2461.       2429.    
        2402.       2371.       2347.       2330.       2315.       2300.       2277.       2254.       2232.       2212.    
        2198.       2187.       2176.       2166.       2158.       2149.       2142.       2133.       2129.       2131.    
        2139.       2149.       2159.       2165.       2167.       2152.       2125.       2115.       2124.       2144.    
        2169.       2185.       2192.       2177.       2159.       2135.       2101.       2072.       2049.       2035.    
        2029.       2026.       2027.       2028.       2032.       2025.       2016.       2008.       1998.       1986.    
        1976.       1962.       1957.       1957.       1964.       1960.       1956.       0.000       0.000       0.000    
        0.000    
  49    0.000       0.000       2618.       2588.       2565.       2552.       2568.       2560.       2543.       2522.    
        2523.       2525.       2521.       2509.       2509.       2513.       2513.       2496.       2475.       2445.    
        2417.       2388.       2358.       2338.       2319.       2303.       2282.       2259.       2236.       2212.    
        2195.       2183.       2173.       2164.       2156.       2147.       2141.       2134.       2132.       2133.    
        2141.       2150.       2161.       2169.       2174.       2163.       2137.       2118.       2120.       2140.    
        2172.       2196.       2207.       2194.       2169.       2145.       2112.       2080.       2054.       2039.    
        2034.       2035.       2036.       2034.       2031.       2023.       2013.       2005.       1995.       1984.    
        1974.       1966.       1963.       1969.       1978.       1974.       0.000       0.000       0.000       0.000    
        0.000    
  50    0.000       0.000       0.000       2622.       2603.       2595.       2591.       2589.       2582.       2559.    
        2553.       2544.       2533.       2526.       2523.       2526.       2523.       2506.       2483.       2453.    
        2426.       2401.       2370.       2347.       2325.       2309.       2287.       2261.       2236.       2210.    
        2197.       2182.       2170.       2161.       2153.       2146.       2141.       2136.       2135.       2142.    
        2152.       2161.       2169.       2178.       2181.       2175.       2150.       2126.       2121.       2136.    
        2170.       2199.       2214.       2205.       2181.       2152.       2120.       2089.       2066.       2049.    
        2042.       2044.       2044.       2040.       2030.       2022.       2013.       2005.       1995.       1984.    
        1976.       1972.       1969.       1974.       1986.       1991.       0.000       0.000       0.000       0.000    
        0.000    
  51    0.000       0.000       0.000       0.000       0.000       0.000       0.000       0.000       2610.       2594.    
        2574.       2557.       2540.       0.000       0.000       2538.       2535.       2516.       2487.       2456.    
        2431.       2408.       2380.       2354.       2331.       2313.       2291.       2264.       2238.       2214.    
        2196.       2182.       2169.       2159.       2153.       2147.       2142.       2138.       2144.       2155.    
        2165.       2175.       2188.       2197.       2199.       2192.       2166.       2138.       2127.       2135.    
        2168.       2199.       2220.       2215.       2192.       2160.       2127.       2099.       2077.       2060.    
        2050.       2052.       2054.       2048.       2033.       2023.       2015.       2007.       1997.       1989.    
        1982.       1977.       1976.       1980.       1990.       1998.       0.000       0.000       0.000       0.000    
        0.000    
  52    0.000       0.000       0.000       0.000       0.000       0.000       0.000       0.000       0.000       0.000    
        0.000       0.000       0.000       0.000       0.000       0.000       2537.       2518.       2488.       2460.    
        2433.       2410.       2387.       2360.       2339.       2318.       2293.       2266.       2240.       2216.    
        2197.       2181.       2168.       2158.       2154.       2149.       2144.       2144.       2153.       2166.    
        2180.       2194.       2209.       2220.       2224.       2211.       2179.       2154.       2143.       2143.    
        2169.       2200.       2221.       2221.       2198.       2166.       2134.       2108.       2085.       2073.    
        2059.       2060.       2065.       2061.       2043.       2028.       2019.       2011.       2002.       1994.    
        1989.       1984.       1985.       1989.       1997.       2007.       0.000       0.000       0.000       0.000    
        0.000    
  53    0.000       0.000       0.000       0.000       0.000       0.000       0.000       0.000       0.000       0.000    
        0.000       0.000       0.000       0.000       0.000       0.000       0.000       2514.       2486.       2459.    
        2432.       2409.       2391.       2374.       2350.       2320.       2293.       2267.       2241.       2217.    
        2199.       2182.       2170.       2159.       2154.       2149.       2148.       2150.       2161.       2174.    
        2193.       2213.       2230.       2241.       2245.       2225.       2192.       2168.       2157.       2154.    
        2171.       2202.       2222.       2225.       2198.       2167.       2138.       2113.       2093.       2081.    
        2070.       2070.       2074.       2072.       2056.       2034.       2022.       2015.       2007.       2001.    
        1995.       1992.       1995.       2000.       2006.       2013.       0.000       0.000       0.000       0.000    
        0.000    
  54    0.000       0.000       0.000       0.000       0.000       0.000       0.000       0.000       0.000       0.000    
        0.000       0.000       0.000       0.000       0.000       0.000       0.000       0.000       2483.       2457.    
        2429.       2406.       2391.       2381.       2350.       2321.       2293.       2269.       2242.       2218.    
        2200.       2182.       2170.       2161.       2155.       2151.       2150.       2155.       2163.       2177.    
        2196.       2219.       2238.       2253.       2258.       2232.       2201.       2181.       2169.       2162.    
        2177.       2204.       2224.       2228.       2200.       2167.       2143.       2118.       2099.       2089.    
        2081.       2080.       2079.       2077.       2066.       2042.       2028.       2021.       2016.       2013.    
        2001.       1998.       2004.       2010.       2013.       2019.       0.000       0.000       0.000       0.000    
        0.000    
  55    0.000       0.000       0.000       0.000       0.000       0.000       0.000       0.000       0.000       0.000    
        0.000       0.000       0.000       0.000       0.000       0.000       0.000       0.000       2481.       2452.    
        2422.       2402.       2388.       2371.       2344.       2321.       2294.       2268.       2242.       2220.    
        2202.       2185.       2172.       2162.       2155.       2152.       2153.       2158.       2165.       2178.    
        2196.       2216.       2236.       2254.       2263.       2244.       2213.       2194.       2181.       2173.    
        2182.       2207.       2229.       2233.       2200.       2172.       2152.       2129.       2107.       2099.    
        2094.       2089.       2085.       2080.       2066.       2048.       2036.       2030.       2029.       2025.    
        2011.       2004.       2013.       2018.       2022.       2027.       0.000       0.000       0.000       0.000    
        0.000    
  56    0.000       0.000       0.000       0.000       0.000       0.000       0.000       0.000       0.000       0.000    
        0.000       0.000       0.000       0.000       0.000       0.000       0.000       0.000       0.000       0.000    
        0.000       2397.       2384.       2366.       2341.       2319.       2293.       2265.       2242.       2221.    
        2204.       2184.       2173.       2163.       2156.       2154.       2155.       2160.       2168.       2181.    
        2199.       2218.       2237.       2256.       2269.       2264.       2230.       2208.       2194.       2185.    
        2191.       2212.       2236.       2236.       2202.       2180.       2161.       2139.       2118.       2110.    
        2105.       2098.       2091.       2087.       2071.       2053.       2044.       2042.       2041.       2036.    
        2022.       2011.       2023.       2031.       2034.       2040.       0.000       0.000       0.000       0.000    
        0.000    
  57    0.000       0.000       0.000       0.000       0.000       0.000       0.000       0.000       0.000       0.000    
        0.000       0.000       0.000       0.000       0.000       0.000       0.000       0.000       0.000       0.000    
        0.000       0.000       2379.       2363.       2340.       2317.       2294.       2264.       2242.       2220.    
        2203.       2185.       2174.       2165.       2158.       2156.       2156.       2162.       2170.       2185.    
        2203.       2222.       2243.       2263.       2277.       2276.       2249.       2224.       2209.       2200.    
        2202.       2220.       2244.       2242.       2209.       2188.       2169.       2149.       2129.       2121.    
        2116.       2109.       2098.       2091.       2078.       2064.       2052.       2055.       2054.       2051.    
        2036.       2023.       2034.       2049.       2051.       2057.       0.000       0.000       0.000       0.000    
        0.000    
  58    0.000       0.000       0.000       0.000       0.000       0.000       0.000       0.000       0.000       0.000    
        0.000       0.000       0.000       0.000       0.000       0.000       0.000       0.000       0.000       0.000    
        0.000       0.000       0.000       2360.       2342.       2317.       2297.       2264.       2242.       2222.    
        2207.       2188.       2175.       2167.       2161.       2158.       2158.       2164.       2173.       2188.    
        2207.       2227.       2249.       2272.       2290.       2286.       2265.       2239.       2225.       2216.    
        2213.       2228.       2254.       2248.       2219.       2199.       2179.       2160.       2142.       2136.    
        2131.       2121.       2106.       2094.       2083.       2071.       2064.       2066.       2068.       2067.    
        2052.       2036.       2043.       2055.       2061.       2064.       0.000       0.000       0.000       0.000    
        0.000    
  59    0.000       0.000       0.000       0.000       0.000       0.000       0.000       0.000       0.000       0.000    
        0.000       0.000       0.000       0.000       0.000       0.000       0.000       0.000       0.000       0.000    
        0.000       0.000       0.000       0.000       0.000       0.000       0.000       0.000       0.000       2220.    
        2208.       2191.       2175.       2167.       2162.       2159.       2161.       2167.       2176.       2191.    
        2210.       2231.       2252.       2277.       2300.       2300.       2277.       2252.       2236.       2228.    
        2226.       2237.       2260.       2253.       2230.       2214.       2194.       2174.       2157.       2151.    
        2146.       2135.       2117.       2101.       2091.       2080.       2074.       2079.       2083.       2083.    
        2063.       2047.       2054.       2061.       2067.       2069.       0.000       0.000       0.000       0.000    
        0.000    
  60    0.000       0.000       0.000       0.000       0.000       0.000       0.000       0.000       0.000       0.000    
        0.000       0.000       0.000       0.000       0.000       0.000       0.000       0.000       0.000       0.000    
        0.000       0.000       0.000       0.000       0.000       0.000       0.000       0.000       0.000       0.000    
        0.000       2193.       2179.       2168.       2164.       2162.       2164.       2169.       2179.       2193.    
        2212.       2233.       2254.       2279.       2307.       2312.       2295.       2266.       2245.       2238.    
        2235.       2243.       2261.       2258.       2243.       2226.       2207.       2189.       2174.       2168.    
        2160.       2148.       2128.       2112.       2100.       2091.       2086.       2089.       2092.       2092.    
        2066.       2059.       2065.       2073.       2074.       2075.       0.000       0.000       0.000       0.000    
        0.000    
  61    0.000       0.000       0.000       0.000       0.000       0.000       0.000       0.000       0.000       0.000    
        0.000       0.000       0.000       0.000       0.000       0.000       0.000       0.000       0.000       0.000    
        0.000       0.000       0.000       0.000       0.000       0.000       0.000       0.000       0.000       0.000    
        0.000       0.000       2181.       2170.       2166.       2164.       2165.       2170.       2180.       2193.    
        2213.       2235.       2256.       2279.       2307.       2320.       2309.       2278.       2258.       2248.    
        2245.       2248.       2263.       2268.       2256.       2239.       2220.       2204.       2193.       2190.    
        2180.       2159.       2139.       2123.       2113.       2101.       2098.       2099.       2095.       2088.    
        2073.       2073.       2075.       2078.       2079.       2080.       0.000       0.000       0.000       0.000    
        0.000    
  62    0.000       0.000       0.000       0.000       0.000       0.000       0.000       0.000       0.000       0.000    
        0.000       0.000       0.000       0.000       0.000       0.000       0.000       0.000       0.000       0.000    
        0.000       0.000       0.000       0.000       0.000       0.000       0.000       0.000       0.000       0.000    
        0.000       0.000       0.000       2174.       2169.       0.000       0.000       0.000       0.000       0.000    
        0.000       0.000       0.000       0.000       0.000       0.000       2321.       2297.       2272.       2260.    
        2254.       2255.       2269.       2276.       2270.       2254.       2235.       2217.       2209.       2210.    
        2198.       2175.       2151.       2135.       2126.       2115.       2112.       2105.       2095.       2085.    
        2081.       2084.       2083.       2083.       2084.       2085.       0.000       0.000       0.000       0.000    
        0.000    
  63    0.000       0.000       0.000       0.000       0.000       0.000       0.000       0.000       0.000       0.000    
        0.000       0.000       0.000       0.000       0.000       0.000       0.000       0.000       0.000       0.000    
        0.000       0.000       0.000       0.000       0.000       0.000       0.000       0.000       0.000       0.000    
        0.000       0.000       0.000       0.000       0.000       0.000       0.000       0.000       0.000       0.000    
        0.000       0.000       0.000       0.000       0.000       0.000       2330.       2315.       2292.       2278.    
        2267.       2264.       2275.       2285.       2285.       2271.       2254.       2237.       2227.       2226.    
        2212.       2187.       2166.       2149.       2136.       2127.       2121.       2106.       2095.       2089.    
        2091.       2091.       2089.       2091.       2094.       2097.       0.000       0.000       0.000       0.000    
        0.000    
  64    0.000       0.000       0.000       0.000       0.000       0.000       0.000       0.000       0.000       0.000    
        0.000       0.000       0.000       0.000       0.000       0.000       0.000       0.000       0.000       0.000    
        0.000       0.000       0.000       0.000       0.000       0.000       0.000       0.000       0.000       0.000    
        0.000       0.000       0.000       0.000       0.000       0.000       0.000       0.000       0.000       0.000    
        0.000       0.000       0.000       0.000       0.000       0.000       0.000       2326.       2314.       2306.    
        2286.       2274.       2280.       2293.       2300.       2291.       2277.       2263.       2249.       2242.    
        2227.       2204.       2181.       2162.       2148.       2131.       2118.       2106.       2099.       2097.    
        2099.       2097.       2097.       2101.       2106.       2110.       0.000       0.000       0.000       0.000    
        0.000    
  65    0.000       0.000       0.000       0.000       0.000       0.000       0.000       0.000       0.000       0.000    
        0.000       0.000       0.000       0.000       0.000       0.000       0.000       0.000       0.000       0.000    
        0.000       0.000       0.000       0.000       0.000       0.000       0.000       0.000       0.000       0.000    
        0.000       0.000       0.000       0.000       0.000       0.000       0.000       0.000       0.000       0.000    
        0.000       0.000       0.000       0.000       0.000       0.000       0.000       0.000       2325.       2321.    
        2301.       2283.       2284.       2296.       2308.       2309.       2297.       2284.       2272.       2261.    
        2244.       2220.       2192.       2170.       2153.       2132.       2118.       2109.       2105.       2105.    
        2105.       2105.       2108.       2113.       2116.       2117.       0.000       0.000       0.000       0.000    
        0.000    
  66    0.000       0.000       0.000       0.000       0.000       0.000       0.000       0.000       0.000       0.000    
        0.000       0.000       0.000       0.000       0.000       0.000       0.000       0.000       0.000       0.000    
        0.000       0.000       0.000       0.000       0.000       0.000       0.000       0.000       0.000       0.000    
        0.000       0.000       0.000       0.000       0.000       0.000       0.000       0.000       0.000       0.000    
        0.000       0.000       0.000       0.000       0.000       0.000       0.000       0.000       0.000       2331.    
        2312.       2296.       2292.       2302.       2317.       2323.       2314.       2301.       2287.       2272.    
        2255.       2229.       2200.       2172.       2154.       2135.       2121.       2113.       2112.       2112.    
        2111.       2113.       2117.       2121.       2123.       2124.       0.000       0.000       0.000       0.000    
        0.000    
  67    0.000       0.000       0.000       0.000       0.000       0.000       0.000       0.000       0.000       0.000    
        0.000       0.000       0.000       0.000       0.000       0.000       0.000       0.000       0.000       0.000    
        0.000       0.000       0.000       0.000       0.000       0.000       0.000       0.000       0.000       0.000    
        0.000       0.000       0.000       0.000       0.000       0.000       0.000       0.000       0.000       0.000    
        0.000       0.000       0.000       0.000       0.000       0.000       0.000       0.000       0.000       2333.    
        2319.       2305.       2298.       2307.       2325.       2335.       2326.       2314.       2297.       2277.    
        2257.       2232.       2202.       2170.       2153.       2135.       2124.       2119.       2118.       2118.    
        2118.       2120.       2124.       2129.       2131.       2132.       0.000       0.000       0.000       0.000    
        0.000    
  68    0.000       0.000       0.000       0.000       0.000       0.000       0.000       0.000       0.000       0.000    
        0.000       0.000       0.000       0.000       0.000       0.000       0.000       0.000       0.000       0.000    
        0.000       0.000       0.000       0.000       0.000       0.000       0.000       0.000       0.000       0.000    
        0.000       0.000       0.000       0.000       0.000       0.000       0.000       0.000       0.000       0.000    
        0.000       0.000       0.000       0.000       0.000       0.000       0.000       0.000       0.000       0.000    
        2322.       2307.       2301.       2307.       2323.       2343.       2336.       2321.       2299.       2277.    
        2257.       2230.       2201.       2170.       2154.       2138.       2132.       2126.       2125.       2124.    
        2122.       2126.       2131.       2136.       2140.       2141.       0.000       0.000       0.000       0.000    
        0.000    
  69    0.000       0.000       0.000       0.000       0.000       0.000       0.000       0.000       0.000       0.000    
        0.000       0.000       0.000       0.000       0.000       0.000       0.000       0.000       0.000       0.000    
        0.000       0.000       0.000       0.000       0.000       0.000       0.000       0.000       0.000       0.000    
        0.000       0.000       0.000       0.000       0.000       0.000       0.000       0.000       0.000       0.000    
        0.000       0.000       0.000       0.000       0.000       0.000       0.000       0.000       0.000       0.000    
        0.000       0.000       0.000       0.000       0.000       0.000       2341.       2323.       2301.       2279.    
        2257.       2228.       2199.       2172.       2157.       2148.       2143.       2136.       2134.       2131.    
        2128.       2131.       2136.       2142.       2148.       2149.       0.000       0.000       0.000       0.000    
        0.000    
  70    0.000       0.000       0.000       0.000       0.000       0.000       0.000       0.000       0.000       0.000    
        0.000       0.000       0.000       0.000       0.000       0.000       0.000       0.000       0.000       0.000    
        0.000       0.000       0.000       0.000       0.000       0.000       0.000       0.000       0.000       0.000    
        0.000       0.000       0.000       0.000       0.000       0.000       0.000       0.000       0.000       0.000    
        0.000       0.000       0.000       0.000       0.000       0.000       0.000       0.000       0.000       0.000    
        0.000       0.000       0.000       0.000       0.000       0.000       2347.       2328.       2305.       2282.    
        2256.       2227.       2201.       2178.       2164.       2156.       2147.       2141.       2136.       2132.    
        2131.       2134.       2139.       2145.       2151.       0.000       0.000       0.000       0.000       0.000    
        0.000    
  71    0.000       0.000       0.000       0.000       0.000       0.000       0.000       0.000       0.000       0.000    
        0.000       0.000       0.000       0.000       0.000       0.000       0.000       0.000       0.000       0.000    
        0.000       0.000       0.000       0.000       0.000       0.000       0.000       0.000       0.000       0.000    
        0.000       0.000       0.000       0.000       0.000       0.000       0.000       0.000       0.000       0.000    
        0.000       0.000       0.000       0.000       0.000       0.000       0.000       0.000       0.000       0.000    
        0.000       0.000       0.000       0.000       0.000       0.000       0.000       2338.       2314.       2287.    
        2260.       2234.       2208.       2180.       0.000       0.000       0.000       0.000       0.000       0.000    
        0.000       0.000       0.000       0.000       2155.       0.000       0.000       0.000       0.000       0.000    
        0.000    
  72    0.000       0.000       0.000       0.000       0.000       0.000       0.000       0.000       0.000       0.000    
        0.000       0.000       0.000       0.000       0.000       0.000       0.000       0.000       0.000       0.000    
        0.000       0.000       0.000       0.000       0.000       0.000       0.000       0.000       0.000       0.000    
        0.000       0.000       0.000       0.000       0.000       0.000       0.000       0.000       0.000       0.000    
        0.000       0.000       0.000       0.000       0.000       0.000       0.000       0.000       0.000       0.000    
        0.000       0.000       0.000       0.000       0.000       0.000       0.000       0.000       2323.       2295.    
        2267.       2240.       0.000       0.000       0.000       0.000       0.000       0.000       0.000       0.000    
        0.000       0.000       0.000       0.000       0.000       0.000       0.000       0.000       0.000       0.000    
        0.000    
  73    0.000       0.000       0.000       0.000       0.000       0.000       0.000       0.000       0.000       0.000    
        0.000       0.000       0.000       0.000       0.000       0.000       0.000       0.000       0.000       0.000    
        0.000       0.000       0.000       0.000       0.000       0.000       0.000       0.000       0.000       0.000    
        0.000       0.000       0.000       0.000       0.000       0.000       0.000       0.000       0.000       0.000    
        0.000       0.000       0.000       0.000       0.000       0.000       0.000       0.000       0.000       0.000    
        0.000       0.000       0.000       0.000       0.000       0.000       0.000       0.000       2329.       2305.    
        2274.       0.000       0.000       0.000       0.000       0.000       0.000       0.000       0.000       0.000    
        0.000       0.000       0.000       0.000       0.000       0.000       0.000       0.000       0.000       0.000    
[...]
          0                 9           1            32   56     1      -0.1122882183E-04      32   56    1        -0.5276991070E+00      0.7090677155E+00
          0                10           1            32   56     1      -0.1108369590E-04      32   56    1        -0.5209969561E+00      0.6991185674E+00
                                                   Max.-Head-Change                         Max.-Flux-Residual
  Residual-Control   Outer-Iter.   Inner-Iter.     Column Row Layer    Maximum-Head-Change  Column Row Layer    Maximum-Flux-Residual          L2-NORM 
          0                11           1            32   56     1      -0.1093776711E-04      32   56    1        -0.5142524095E+00      0.6892770612E+00
          0                12           1            32   56     1      -0.1079115201E-04      32   56    1        -0.5074710496E+00      0.6794602822E+00
          0                13           1            32   56     1      -0.1064396617E-04      32   56    1        -0.5006583163E+00      0.6696629079E+00
          0                14           1            67    8     1      -0.3646012342E-03      32   56    1        -0.4938195315E+00      0.6598995500E+00
          0                15           1            67    8     1       0.3545924158E-04      32   56    1        -0.4869598991E+00      0.5034614957E+00
          0                16           1            32   56     1      -0.1020009460E-04      32   56    1        -0.4800845013E+00      0.4947182598E+00
          0                17           1            32   56     1      -0.1005172122E-04      32   56    1        -0.4731982945E+00      0.4877104210E+00
          0                18           1            32   56     1      -0.9903311834E-05      32   56    1        -0.4663061051E+00      0.4807079189E+00

    ------------------------------------------------
       NWT REQUIRED           18 OUTER ITERATIONS 
       AND A TOTAL OF         23 INNER ITERATIONS.
    ------------------------------------------------

 NO OUTPUT CONTROL FOR STRESS PERIOD    2   TIME STEP  1097

  MNW2 WELL: WELL-A               Qnet =  -4.53699443292432392E-009  < Qdes
 Qdes updated because of Hlim constraint

  MNW2 WELL: WELL-B               Qnet =   7.58417662005683724E-009  < Qdes
 Qdes updated because of Hlim constraint

  MNW2 WELL: WELL-C               Qnet =  -4.47105536621750232E-010  < Qdes
 Qdes updated because of Hlim constraint

  MNW2 WELL: WELL-D               Qnet =  -2.57065017189583855E-009  < Qdes
 Qdes updated because of Hlim constraint

  MNW2 WELL: WELL-E               Qnet =   -316.98080474157564       < Qdes
 Qdes updated because of Hlim constraint and/or Seepage Face calculation

  MNW2 WELL: WELL-F               Qnet =   -302.01444645449516       < Qdes
 Qdes updated because of Hlim constraint and/or Seepage Face calculation

  MNW2 WELL: WELL-G               Qnet =  -4.91046314721188537E-009  < Qdes
 Qdes updated because of Hlim constraint

  MNW2 WELL: WELL-H               Qnet =  -3.25045134141888070E-008  < Qdes
 Qdes updated because of Hlim constraint

MNW2 Well Conductance and Screen (Open    Interval) Data
                              M O D E L     L A Y E R     W E L L  S C R E E N   Penetration    SKIN          CALCULATED
WELLID        Node    CWC*     top_elev    bott.elev    top_elev   bott.elev    fraction     COEFF.                   B
WELL-A           1  7.3394      1997.5      1956.0      1997.5      1956.0      1.0000     -2.5865     -0.1526              
WELL-A           2 0.30294      1956.0      1905.0      1956.0      1905.0      1.0000     -2.5994      -3.004              
WELL-B           1  7.6777      1987.4      1944.0      1987.4      1944.0      1.0000     -2.5865     -0.1459              
WELL-B           2 0.28816      1944.0      1895.0      1944.0      1895.0      1.0000     -2.5994      -3.127              
WELL-C           1  10.139      2012.3      1955.0      2012.3      1955.0      1.0000     -2.5865     -0.1105              
WELL-C           2 0.29555      1955.0      1905.0      1955.0      1905.0      1.0000     -2.5994      -3.065              
WELL-D           1  10.613      2018.2      1951.0      2018.2      1951.0      1.0000     -2.5865     -9.4235E-02          
WELL-D           2 0.26600      1951.0      1905.0      1951.0      1905.0      1.0000     -2.5994      -3.331              
WELL-E           1  7.9736      1954.7      1947.0      1954.7      1947.0      1.0000     -2.5189     -0.1329              
WELL-E           2  5.3083      1947.0      1865.0      1947.0      1865.0      1.0000     -2.5944     -0.1865              
WELL-F           1  10.771      1955.4      1945.0      1955.4      1945.0      1.0000     -2.5189     -9.8406E-02          
WELL-F           2  5.1608      1945.0      1865.0      1945.0      1865.0      1.0000     -2.5944     -0.1912              
WELL-G           1  7.6715      1959.4      1952.0      1959.4      1952.0      1.0000     -2.5189     -0.1382              
WELL-G           2  6.4141      1952.0      1855.0      1952.0      1855.0      1.0000     -2.5944     -0.1577              
WELL-H           1  7.2570      1962.0      1955.0      1962.0      1955.0      1.0000     -2.5189     -0.1461              
WELL-H           2  6.6353      1955.0      1855.0      1955.0      1855.0      1.0000     -2.5944     -0.1529              
* Cell-to-well conductance values (CWC) may change during the course of a stress period

                                                   Max.-Head-Change                         Max.-Flux-Residual
  Residual-Control   Outer-Iter.   Inner-Iter.     Column Row Layer    Maximum-Head-Change  Column Row Layer    Maximum-Flux-Residual          L2-NORM 
          0                 1           2            69   42     2       0.1145536467E+02      69   42    1        -0.2049418400E+03      0.3887398346E+03
          0                 2           2            69   42     2      -0.9473803240E+00      76   45    1         0.8258588929E+02      0.1008901364E+03
          0                 3           2            66   39     2      -0.3655394409E+02      66   39    2        -0.6784334379E+03      0.7190310602E+03
          0                 4           2            66   39     2       0.2354474527E+01      66   39    2         0.4755828175E+02      0.7491094988E+02
          0                 5           2            66   39     2      -0.1083519454E+00      67   39    1        -0.7439482470E+01      0.8518827331E+01
          0                 6           2            67   39     2      -0.9728639034E-02      67   39    1        -0.1768442383E+01      0.1813909207E+01
          0                 7           1            67   39     2      -0.1543017053E-02      67   39    1        -0.3887510098E+00      0.4300837191E+00
          0                 8           1            67   39     2      -0.2749196576E-03      68   51    1        -0.1382243562E+00      0.1759662143E+00
          0                 9           1            67   39     2      -0.3031458781E-04      68   51    1        -0.1365919186E+00      0.1511200245E+00
          0                10           1            67   39     2      -0.4418318159E-04      68   51    1        -0.1349699769E+00      0.1480898993E+00
          0                11           1            68   51     1      -0.2840468350E-05      68   51    1        -0.1333587207E+00      0.1462997826E+00

    ------------------------------------------------
       NWT REQUIRED           11 OUTER ITERATIONS 
       AND A TOTAL OF         17 INNER ITERATIONS.
    ------------------------------------------------

 NO OUTPUT CONTROL FOR STRESS PERIOD    2   TIME STEP  1098

  MNW2 WELL: WELL-A               Qnet =   5.84820371296590480E-009  < Qdes
 Qdes updated because of Hlim constraint

  MNW2 WELL: WELL-B               Qnet =   1.31917469725628678E-008  < Qdes
 Qdes updated because of Hlim constraint

  MNW2 WELL: WELL-C               Qnet =  -1.03318711159108845E-006  < Qdes
 Qdes updated because of Hlim constraint

  MNW2 WELL: WELL-D               Qnet =  -1.33628594300994052E-009  < Qdes
 Qdes updated because of Hlim constraint

  MNW2 WELL: WELL-E               Qnet =   -314.37351678045229       < Qdes
 Qdes updated because of Hlim constraint and/or Seepage Face calculation

  MNW2 WELL: WELL-F               Qnet =   -299.83579935382903       < Qdes
 Qdes updated because of Hlim constraint and/or Seepage Face calculation

  MNW2 WELL: WELL-G               Qnet =   -493.31576239130584       < Qdes
 Qdes updated because of Hlim constraint and/or Seepage Face calculation

  MNW2 WELL: WELL-H               Qnet =  -1.32094860134657210E-005  < Qdes
 Qdes updated because of Hlim constraint

MNW2 Well Conductance and Screen (Open    Interval) Data
                              M O D E L     L A Y E R     W E L L  S C R E E N   Penetration    SKIN          CALCULATED
WELLID        Node    CWC*     top_elev    bott.elev    top_elev   bott.elev    fraction     COEFF.                   B
WELL-A           1  7.3390      1997.5      1956.0      1997.5      1956.0      1.0000     -2.5865     -0.1526              
WELL-A           2 0.30294      1956.0      1905.0      1956.0      1905.0      1.0000     -2.5994      -3.004              
WELL-B           1  7.6773      1987.4      1944.0      1987.4      1944.0      1.0000     -2.5865     -0.1459              
WELL-B           2 0.28816      1944.0      1895.0      1944.0      1895.0      1.0000     -2.5994      -3.127              
WELL-C           1  10.141      2012.3      1955.0      2012.3      1955.0      1.0000     -2.5865     -0.1105              
WELL-C           2 0.29555      1955.0      1905.0      1955.0      1905.0      1.0000     -2.5994      -3.065              
WELL-D           1  10.613      2018.2      1951.0      2018.2      1951.0      1.0000     -2.5865     -9.4241E-02          
WELL-D           2 0.26600      1951.0      1905.0      1951.0      1905.0      1.0000     -2.5994      -3.331              
WELL-E           1  7.9182      1954.7      1947.0      1954.7      1947.0      1.0000     -2.5189     -0.1339              
WELL-E           2  5.3083      1947.0      1865.0      1947.0      1865.0      1.0000     -2.5944     -0.1865              
WELL-F           1  10.603      1955.3      1945.0      1955.3      1945.0      1.0000     -2.5189     -9.9964E-02          
WELL-F           2  5.1608      1945.0      1865.0      1945.0      1865.0      1.0000     -2.5944     -0.1912              
WELL-G           1  7.5998      1959.4      1952.0      1959.4      1952.0      1.0000     -2.5189     -0.1395              
WELL-G           2  6.4141      1952.0      1855.0      1952.0      1855.0      1.0000     -2.5944     -0.1577              
WELL-H           1  7.2565      1962.0      1955.0      1962.0      1955.0      1.0000     -2.5189     -0.1461              
WELL-H           2  6.6353      1955.0      1855.0      1955.0      1855.0      1.0000     -2.5944     -0.1529              
* Cell-to-well conductance values (CWC) may change during the course of a stress period

                                                   Max.-Head-Change                         Max.-Flux-Residual
  Residual-Control   Outer-Iter.   Inner-Iter.     Column Row Layer    Maximum-Head-Change  Column Row Layer    Maximum-Flux-Residual          L2-NORM 
          0                 1           2            69   42     2       0.1131222055E+02      69   42    1        -0.1978158591E+03      0.3724981472E+03
          0                 2           2            69   42     2      -0.9271541129E+00      76   45    1         0.8121787247E+02      0.9684165222E+02
          0                 3           2            69   42     2      -0.1119134919E+02      69   42    2        -0.1713331095E+03      0.2062878433E+03
          0                 4           2            69   42     2       0.7632275240E+00      69   42    2         0.1201755074E+02      0.1473278604E+02
          0                 5           2            69   42     2      -0.3046115553E-01      69   42    2        -0.4930242192E+00      0.1070198663E+01
          0                 6           1            67   39     2      -0.6428819548E-03      68   51    1        -0.1536338982E+00      0.3252562011E+00
          0                 7           1            67   39     2      -0.1096481927E-03      68   51    1        -0.1517226412E+00      0.2014251156E+00
          0                 8           1            67   39     2      -0.4043217328E-04      68   51    1        -0.1498243201E+00      0.1808419712E+00
          0                 9           1            39   29     1       0.8700536830E-05      68   51    1        -0.1479391963E+00      0.1763975105E+00

    ------------------------------------------------
       NWT REQUIRED            9 OUTER ITERATIONS 
       AND A TOTAL OF         14 INNER ITERATIONS.
    ------------------------------------------------

 NO OUTPUT CONTROL FOR STRESS PERIOD    2   TIME STEP  1099

  MNW2 WELL: WELL-A               Qnet =   1.07370499297099187E-007  < Qdes
 Qdes updated because of Hlim constraint

  MNW2 WELL: WELL-B               Qnet =   1.09137165055228635E-007  < Qdes
 Qdes updated because of Hlim constraint

  MNW2 WELL: WELL-C               Qnet =  -1.01869639110019339E-005  < Qdes
 Qdes updated because of Hlim constraint

  MNW2 WELL: WELL-D               Qnet =   2.52242510004330178E-008  < Qdes
 Qdes updated because of Hlim constraint

  MNW2 WELL: WELL-E               Qnet =   -312.93824461396758       < Qdes
 Qdes updated because of Hlim constraint and/or Seepage Face calculation

  MNW2 WELL: WELL-F               Qnet =   -297.93450448378843       < Qdes
 Qdes updated because of Hlim constraint and/or Seepage Face calculation

  MNW2 WELL: WELL-G               Qnet =   -471.76984600950374       < Qdes
 Qdes updated because of Hlim constraint and/or Seepage Face calculation

  MNW2 WELL: WELL-H               Qnet =  -5.66543594970880804E-006  < Qdes
 Qdes updated because of Hlim constraint

MNW2 Well Conductance and Screen (Open    Interval) Data
                              M O D E L     L A Y E R     W E L L  S C R E E N   Penetration    SKIN          CALCULATED
WELLID        Node    CWC*     top_elev    bott.elev    top_elev   bott.elev    fraction     COEFF.                   B
WELL-A           1  7.3386      1997.5      1956.0      1997.5      1956.0      1.0000     -2.5865     -0.1526              
WELL-A           2 0.30294      1956.0      1905.0      1956.0      1905.0      1.0000     -2.5994      -3.004              
WELL-B           1  7.6769      1987.4      1944.0      1987.4      1944.0      1.0000     -2.5865     -0.1459              
WELL-B           2 0.28816      1944.0      1895.0      1944.0      1895.0      1.0000     -2.5994      -3.127              
WELL-C           1  10.143      2012.3      1955.0      2012.3      1955.0      1.0000     -2.5865     -0.1104              
WELL-C           2 0.29555      1955.0      1905.0      1955.0      1905.0      1.0000     -2.5994      -3.065              
WELL-D           1  10.613      2018.2      1951.0      2018.2      1951.0      1.0000     -2.5865     -9.4247E-02          
WELL-D           2 0.26600      1951.0      1905.0      1951.0      1905.0      1.0000     -2.5994      -3.331              
WELL-E           1  7.8634      1954.6      1947.0      1954.6      1947.0      1.0000     -2.5189     -0.1348              
WELL-E           2  5.3083      1947.0      1865.0      1947.0      1865.0      1.0000     -2.5944     -0.1865              
WELL-F           1  10.441      1955.1      1945.0      1955.1      1945.0      1.0000     -2.5189     -0.1015              
WELL-F           2  5.1608      1945.0      1865.0      1945.0      1865.0      1.0000     -2.5944     -0.1912              
WELL-G           1  7.5182      1959.3      1952.0      1959.3      1952.0      1.0000     -2.5189     -0.1410              
WELL-G           2  6.4141      1952.0      1855.0      1952.0      1855.0      1.0000     -2.5944     -0.1577              
WELL-H           1  7.2444      1962.0      1955.0      1962.0      1955.0      1.0000     -2.5189     -0.1463              
WELL-H           2  6.6353      1955.0      1855.0      1955.0      1855.0      1.0000     -2.5944     -0.1529              
* Cell-to-well conductance values (CWC) may change during the course of a stress period

                                                   Max.-Head-Change                         Max.-Flux-Residual
  Residual-Control   Outer-Iter.   Inner-Iter.     Column Row Layer    Maximum-Head-Change  Column Row Layer    Maximum-Flux-Residual          L2-NORM 
          0                 1           2            69   42     2       0.1115716196E+02      69   42    1        -0.1908740851E+03      0.3757155757E+03
          0                 2           2            69   42     2      -0.9069925416E+00      76   45    1         0.7173609777E+02      0.8803596885E+02
          0                 3           2            69   42     2      -0.1103543561E+02      69   42    2        -0.1689281053E+03      0.2034940150E+03
          0                 4           2            69   42     2       0.7525522118E+00      69   42    2         0.1184885713E+02      0.1492450766E+02
          0                 5           2            69   42     2      -0.3003417845E-01      67   39    1        -0.6320191033E+00      0.1225161825E+01
          0                 6           1            67   39     2      -0.8879553880E-03      68   51    1        -0.1657013515E+00      0.3745655768E+00
          0                 7           1            67   39     2      -0.1721200800E-03      68   51    1        -0.1635262053E+00      0.2407037095E+00
          0                 8           1            67   39     2      -0.3483257562E-04      68   51    1        -0.1613670418E+00      0.2203961794E+00
          0                 9           1            36   21     1       0.1056658081E-04      68   51    1        -0.1592241645E+00      0.2157660431E+00
          0                10           1            36   21     1       0.4763021668E-05      68   51    1        -0.1570978480E+00      0.2131593754E+00

    ------------------------------------------------
       NWT REQUIRED           10 OUTER ITERATIONS 
       AND A TOTAL OF         15 INNER ITERATIONS.
    ------------------------------------------------

 NO OUTPUT CONTROL FOR STRESS PERIOD    2   TIME STEP  1100

  MNW2 WELL: WELL-A               Qnet =   2.59370140226478085E-008  < Qdes
 Qdes updated because of Hlim constraint

  MNW2 WELL: WELL-B               Qnet =   1.98549878760445608E-008  < Qdes
 Qdes updated because of Hlim constraint

  MNW2 WELL: WELL-C               Qnet =  -2.70493983847708286E-006  < Qdes
 Qdes updated because of Hlim constraint

  MNW2 WELL: WELL-D               Qnet =   1.22349081560502171E-009  < Qdes
 Qdes updated because of Hlim constraint

  MNW2 WELL: WELL-E               Qnet =   -312.18342892722490       < Qdes
 Qdes updated because of Hlim constraint and/or Seepage Face calculation

  MNW2 WELL: WELL-F               Qnet =   -296.19017783299620       < Qdes
 Qdes updated because of Hlim constraint and/or Seepage Face calculation

  MNW2 WELL: WELL-G               Qnet =   -468.17531924781912       < Qdes
 Qdes updated because of Hlim constraint and/or Seepage Face calculation

  MNW2 WELL: WELL-H               Qnet =   2.09299248865590926E-006  < Qdes
 Qdes updated because of Hlim constraint

 WRITING FILE ON UNIT   91:
   WRITING DATA FOR RESTART UZF

 WRITING FILE ON UNIT   91:
   WRITING DATA FOR RESTART SFR

 WRITING FILE ON UNIT   91:
  WRITING DATA FOR RESTART MNW2

 Run end date and time (yyyy/mm/dd hh:mm:ss): 2015/09/28 15:58:11

 Elapsed run time: 18.331 Seconds

