


                              U.S. Geological Survey
            Coupled Groundwater and Surface-water FLOW model (GSFLOW)
                             Version 1.1.6 03/20/2013

        An integration of the Precipitation-Runoff Modeling System (PRMS)
        and the Modular Groundwater Model (MODFLOW-NWT and MODFLOW-2005)

                                  MODFLOW-NWT
    U.S. GEOLOGICAL SURVEY MODULAR FINITE-DIFFERENCE GROUNDWATER-FLOW MODEL
                             WITH NEWTON FORMULATION
                             Version 1.0.7 01/15/2013 
                    BASED ON MODFLOW-2005 Version 1.9.01 5/01/2012

                              Processes: GWF and OBS
       Packages: BAS, BCF, CHD, DE4, FHB, GAG, GHB, GMG, HFB, HUF LAK
                 LPF, MNW1, MNW2, NWT, PCG, PCGN, SFR, SIP, UPW, UZF, WEL


 Using NAME file: ./sagehen_linux.mf.nam 

$Id: gwf2uzf1_NWT.f 5459 2013-03-08 22:52:10Z rniswon $         
$Id: gwf2sfr7_NWT.f 5341 2013-02-11 17:52:19Z rniswon $         
$Id: gwf2lak7_NWT.f 5341 2013-02-11 17:52:19Z rniswon $         
 Run start date and time (yyyy/mm/dd hh:mm:ss): 2013/03/21 11:01:08

 Solving:  Stress period:     1    Time step:     1    Ground-Water Flow Eqn.
 Steady state simulation successful, used:         351 iterations



 Run end date and time (yyyy/mm/dd hh:mm:ss): 2013/03/21 11:01:18
 Elapsed run time:  9.949 Seconds

  Normal termination of simulation
