1
 SUMMARY VOLUMETRIC BUDGET FOR GSFLOW 
 DATE: 10 07 1980              CUMULATIVE TIME STEP:       7
 MODFLOW STRESS PERIOD      2     CURRENT TIME STEP:       7     ITERATIONS:       6

 -----------------------------------------------------------------------------------

   CUMULATIVE VOLUMES               L**3   RATES FOR THIS TIME STEP           L**3/T
   ------------------                      ------------------------

                                     IN                                         IN
                                     --                                         --
        PRECIPITATION =                            PRECIPITATION =                  
           STREAMFLOW =                               STREAMFLOW =                  
     GW BOUNDARY FLOW =                         GW BOUNDARY FLOW =                  


                                    OUT                                        OUT
                                    ---                                        ---
   EVAPOTRANSPIRATION =          66593.42     EVAPOTRANSPIRATION =           9275.39
           STREAMFLOW =          42957.50             STREAMFLOW =           6065.76
     GW BOUNDARY FLOW =           4541.44       GW BOUNDARY FLOW =            648.70

   INFLOWS - OUTFLOWS =        -114092.36     INFLOWS - OUTFLOWS =         -15989.84
             --------                                   --------

 TOTAL STORAGE CHANGE =        -113696.75         STORAGE CHANGE =         -15929.26
       --------------                             --------------
         LAND SURFACE =                             LAND SURFACE =                  
            SOIL ZONE =          43922.56              SOIL ZONE =           6420.92
     UNSATURATED ZONE =        -144779.04       UNSATURATED ZONE =         -20361.32
       SATURATED ZONE =         -12840.27         SATURATED ZONE =          -1988.86

 OVERALL BUDGET ERROR =           -395.61           BUDGET ERROR =            -60.59


  PERCENT DISCREPANCY =             -0.35    PERCENT DISCREPANCY =             -0.38



1
 SUMMARY VOLUMETRIC BUDGET FOR GSFLOW 
 DATE: 10 14 1980              CUMULATIVE TIME STEP:      14
 MODFLOW STRESS PERIOD      2     CURRENT TIME STEP:      14     ITERATIONS:       6

 -----------------------------------------------------------------------------------

   CUMULATIVE VOLUMES               L**3   RATES FOR THIS TIME STEP           L**3/T
   ------------------                      ------------------------

                                     IN                                         IN
                                     --                                         --
        PRECIPITATION =         650780.39          PRECIPITATION =         164754.68
           STREAMFLOW =                               STREAMFLOW =                  
     GW BOUNDARY FLOW =                         GW BOUNDARY FLOW =                  


                                    OUT                                        OUT
                                    ---                                        ---
   EVAPOTRANSPIRATION =         162751.97     EVAPOTRANSPIRATION =          11476.73
           STREAMFLOW =          94486.15             STREAMFLOW =           7727.16
     GW BOUNDARY FLOW =           9082.96       GW BOUNDARY FLOW =            648.94

   INFLOWS - OUTFLOWS =         384459.31     INFLOWS - OUTFLOWS =         144901.85
             --------                                   --------

 TOTAL STORAGE CHANGE =         385298.09         STORAGE CHANGE =         144963.28
       --------------                             --------------
         LAND SURFACE =         183752.11           LAND SURFACE =         130549.80
            SOIL ZONE =         513611.55              SOIL ZONE =          36443.87
     UNSATURATED ZONE =        -284496.87       UNSATURATED ZONE =         -19624.98
       SATURATED ZONE =         -27568.70         SATURATED ZONE =          -2405.41

 OVERALL BUDGET ERROR =           -838.77           BUDGET ERROR =            -61.43


  PERCENT DISCREPANCY =             -0.13    PERCENT DISCREPANCY =             -0.04



1
 SUMMARY VOLUMETRIC BUDGET FOR GSFLOW 
 DATE: 10 21 1980              CUMULATIVE TIME STEP:      21
 MODFLOW STRESS PERIOD      2     CURRENT TIME STEP:      21     ITERATIONS:       6

 -----------------------------------------------------------------------------------

   CUMULATIVE VOLUMES               L**3   RATES FOR THIS TIME STEP           L**3/T
   ------------------                      ------------------------

                                     IN                                         IN
                                     --                                         --
        PRECIPITATION =         733156.23          PRECIPITATION =                  
           STREAMFLOW =                               STREAMFLOW =                  
     GW BOUNDARY FLOW =                         GW BOUNDARY FLOW =                  


                                    OUT                                        OUT
                                    ---                                        ---
   EVAPOTRANSPIRATION =         432974.55     EVAPOTRANSPIRATION =          44099.03
           STREAMFLOW =         145880.59             STREAMFLOW =           6877.89
     GW BOUNDARY FLOW =          13624.72       GW BOUNDARY FLOW =            648.74

   INFLOWS - OUTFLOWS =         140676.37     INFLOWS - OUTFLOWS =         -51625.65
             --------                                   --------

 TOTAL STORAGE CHANGE =         141966.02         STORAGE CHANGE =         -51555.13
       --------------                             --------------
         LAND SURFACE =                             LAND SURFACE =                  
            SOIL ZONE =         607225.48              SOIL ZONE =         -29694.45
     UNSATURATED ZONE =        -418693.27       UNSATURATED ZONE =         -18825.45
       SATURATED ZONE =         -46566.19         SATURATED ZONE =          -3035.23

 OVERALL BUDGET ERROR =          -1289.65           BUDGET ERROR =            -70.52


  PERCENT DISCREPANCY =             -0.18    PERCENT DISCREPANCY =             -0.14



1
 SUMMARY VOLUMETRIC BUDGET FOR GSFLOW 
 DATE: 10 28 1980              CUMULATIVE TIME STEP:      28
 MODFLOW STRESS PERIOD      2     CURRENT TIME STEP:      28     ITERATIONS:       6

 -----------------------------------------------------------------------------------

   CUMULATIVE VOLUMES               L**3   RATES FOR THIS TIME STEP           L**3/T
   ------------------                      ------------------------

                                     IN                                         IN
                                     --                                         --
        PRECIPITATION =        1070899.96          PRECIPITATION =                  
           STREAMFLOW =                               STREAMFLOW =                  
     GW BOUNDARY FLOW =                         GW BOUNDARY FLOW =                  


                                    OUT                                        OUT
                                    ---                                        ---
   EVAPOTRANSPIRATION =         623789.31     EVAPOTRANSPIRATION =          24681.32
           STREAMFLOW =         199257.96             STREAMFLOW =           7737.98
     GW BOUNDARY FLOW =          18165.84       GW BOUNDARY FLOW =            648.77

   INFLOWS - OUTFLOWS =         229686.85     INFLOWS - OUTFLOWS =         -33068.08
             --------                                   --------

 TOTAL STORAGE CHANGE =         231489.64         STORAGE CHANGE =         -32990.88
       --------------                             --------------
         LAND SURFACE =          20573.21           LAND SURFACE =         -29874.96
            SOIL ZONE =         827661.52              SOIL ZONE =          18415.55
     UNSATURATED ZONE =        -547435.72       UNSATURATED ZONE =         -18024.90
       SATURATED ZONE =         -69309.37         SATURATED ZONE =          -3506.57

 OVERALL BUDGET ERROR =          -1802.79           BUDGET ERROR =            -77.20


  PERCENT DISCREPANCY =             -0.17    PERCENT DISCREPANCY =             -0.23



1
 SUMMARY VOLUMETRIC BUDGET FOR GSFLOW 
 DATE: 11 04 1980              CUMULATIVE TIME STEP:      35
 MODFLOW STRESS PERIOD      2     CURRENT TIME STEP:      35     ITERATIONS:      10

 -----------------------------------------------------------------------------------

   CUMULATIVE VOLUMES               L**3   RATES FOR THIS TIME STEP           L**3/T
   ------------------                      ------------------------

                                     IN                                         IN
                                     --                                         --
        PRECIPITATION =        1070899.96          PRECIPITATION =                  
           STREAMFLOW =                               STREAMFLOW =                  
     GW BOUNDARY FLOW =                         GW BOUNDARY FLOW =                  


                                    OUT                                        OUT
                                    ---                                        ---
   EVAPOTRANSPIRATION =         962089.68     EVAPOTRANSPIRATION =          43314.55
           STREAMFLOW =         250155.07             STREAMFLOW =           6825.98
     GW BOUNDARY FLOW =          22706.59       GW BOUNDARY FLOW =            648.61

   INFLOWS - OUTFLOWS =        -164051.38     INFLOWS - OUTFLOWS =         -50789.13
             --------                                   --------

 TOTAL STORAGE CHANGE =        -161858.28         STORAGE CHANGE =         -50746.94
       --------------                             --------------
         LAND SURFACE =                             LAND SURFACE =                  
            SOIL ZONE =         605866.93              SOIL ZONE =         -29187.27
     UNSATURATED ZONE =        -670901.48       UNSATURATED ZONE =         -17352.14
       SATURATED ZONE =         -96823.73         SATURATED ZONE =          -4207.53

 OVERALL BUDGET ERROR =          -2193.10           BUDGET ERROR =            -42.20


  PERCENT DISCREPANCY =             -0.18    PERCENT DISCREPANCY =             -0.08



1
 SUMMARY VOLUMETRIC BUDGET FOR GSFLOW 
 DATE: 11 11 1980              CUMULATIVE TIME STEP:      42
 MODFLOW STRESS PERIOD      2     CURRENT TIME STEP:      42     ITERATIONS:       7

 -----------------------------------------------------------------------------------

   CUMULATIVE VOLUMES               L**3   RATES FOR THIS TIME STEP           L**3/T
   ------------------                      ------------------------

                                     IN                                         IN
                                     --                                         --
        PRECIPITATION =        1573759.34          PRECIPITATION =         255182.10
           STREAMFLOW =                               STREAMFLOW =                  
     GW BOUNDARY FLOW =                         GW BOUNDARY FLOW =                  


                                    OUT                                        OUT
                                    ---                                        ---
   EVAPOTRANSPIRATION =        1193969.72     EVAPOTRANSPIRATION =          17062.52
           STREAMFLOW =         305327.32             STREAMFLOW =          10509.83
     GW BOUNDARY FLOW =          27247.18       GW BOUNDARY FLOW =            648.82

   INFLOWS - OUTFLOWS =          47215.12     INFLOWS - OUTFLOWS =         226960.93
             --------                                   --------

 TOTAL STORAGE CHANGE =          49875.63         STORAGE CHANGE =         227022.77
       --------------                             --------------
         LAND SURFACE =          76836.74           LAND SURFACE =          76836.74
            SOIL ZONE =         889556.62              SOIL ZONE =         170950.48
     UNSATURATED ZONE =        -789537.19       UNSATURATED ZONE =         -16596.63
       SATURATED ZONE =        -126980.54         SATURATED ZONE =          -4167.83

 OVERALL BUDGET ERROR =          -2660.51           BUDGET ERROR =            -61.84


  PERCENT DISCREPANCY =             -0.17    PERCENT DISCREPANCY =             -0.02



1
 SUMMARY VOLUMETRIC BUDGET FOR GSFLOW 
 DATE: 11 18 1980              CUMULATIVE TIME STEP:      49
 MODFLOW STRESS PERIOD      2     CURRENT TIME STEP:      49     ITERATIONS:       6

 -----------------------------------------------------------------------------------

   CUMULATIVE VOLUMES               L**3   RATES FOR THIS TIME STEP           L**3/T
   ------------------                      ------------------------

                                     IN                                         IN
                                     --                                         --
        PRECIPITATION =        1573759.34          PRECIPITATION =                  
           STREAMFLOW =                               STREAMFLOW =                  
     GW BOUNDARY FLOW =                         GW BOUNDARY FLOW =                  


                                    OUT                                        OUT
                                    ---                                        ---
   EVAPOTRANSPIRATION =        1290970.28     EVAPOTRANSPIRATION =          23195.40
           STREAMFLOW =         365815.85             STREAMFLOW =           8947.75
     GW BOUNDARY FLOW =          31788.77       GW BOUNDARY FLOW =            648.81

   INFLOWS - OUTFLOWS =        -114815.56     INFLOWS - OUTFLOWS =         -32791.97
             --------                                   --------

 TOTAL STORAGE CHANGE =        -111671.54         STORAGE CHANGE =         -32709.49
       --------------                             --------------
         LAND SURFACE =           5398.38           LAND SURFACE =          -7586.22
            SOIL ZONE =         946600.94              SOIL ZONE =          -4261.94
     UNSATURATED ZONE =        -903520.61       UNSATURATED ZONE =         -16026.27
       SATURATED ZONE =        -160150.25         SATURATED ZONE =          -4835.06

 OVERALL BUDGET ERROR =          -3144.02           BUDGET ERROR =            -82.47


  PERCENT DISCREPANCY =             -0.19    PERCENT DISCREPANCY =             -0.25



1
 SUMMARY VOLUMETRIC BUDGET FOR GSFLOW 
 DATE: 11 25 1980              CUMULATIVE TIME STEP:      56
 MODFLOW STRESS PERIOD      2     CURRENT TIME STEP:      56     ITERATIONS:       7

 -----------------------------------------------------------------------------------

   CUMULATIVE VOLUMES               L**3   RATES FOR THIS TIME STEP           L**3/T
   ------------------                      ------------------------

                                     IN                                         IN
                                     --                                         --
        PRECIPITATION =        1648813.76          PRECIPITATION =                  
           STREAMFLOW =                               STREAMFLOW =                  
     GW BOUNDARY FLOW =                         GW BOUNDARY FLOW =                  


                                    OUT                                        OUT
                                    ---                                        ---
   EVAPOTRANSPIRATION =        1380032.43     EVAPOTRANSPIRATION =           9280.00
           STREAMFLOW =         428889.79             STREAMFLOW =           9138.99
     GW BOUNDARY FLOW =          36330.51       GW BOUNDARY FLOW =            648.83

   INFLOWS - OUTFLOWS =        -196438.97     INFLOWS - OUTFLOWS =         -19067.82
             --------                                   --------

 TOTAL STORAGE CHANGE =        -192690.43         STORAGE CHANGE =         -19002.26
       --------------                             --------------
         LAND SURFACE =          53187.47           LAND SURFACE =          -9260.11
            SOIL ZONE =         963858.80              SOIL ZONE =          11117.09
     UNSATURATED ZONE =       -1013222.54       UNSATURATED ZONE =         -15403.52
       SATURATED ZONE =        -196514.15         SATURATED ZONE =          -5455.73

 OVERALL BUDGET ERROR =          -3748.54           BUDGET ERROR =            -65.56


  PERCENT DISCREPANCY =             -0.20    PERCENT DISCREPANCY =             -0.34



1
 SUMMARY VOLUMETRIC BUDGET FOR GSFLOW 
 DATE: 12 02 1980              CUMULATIVE TIME STEP:      63
 MODFLOW STRESS PERIOD      2     CURRENT TIME STEP:      63     ITERATIONS:       7

 -----------------------------------------------------------------------------------

   CUMULATIVE VOLUMES               L**3   RATES FOR THIS TIME STEP           L**3/T
   ------------------                      ------------------------

                                     IN                                         IN
                                     --                                         --
        PRECIPITATION =        2076620.74          PRECIPITATION =                  
           STREAMFLOW =                               STREAMFLOW =                  
     GW BOUNDARY FLOW =                         GW BOUNDARY FLOW =                  


                                    OUT                                        OUT
                                    ---                                        ---
   EVAPOTRANSPIRATION =        1590647.92     EVAPOTRANSPIRATION =          35186.72
           STREAMFLOW =         502983.38             STREAMFLOW =          12898.04
     GW BOUNDARY FLOW =          40873.22       GW BOUNDARY FLOW =            649.19

   INFLOWS - OUTFLOWS =         -57883.78     INFLOWS - OUTFLOWS =         -48733.94
             --------                                   --------

 TOTAL STORAGE CHANGE =         -53640.53         STORAGE CHANGE =         -48677.02
       --------------                             --------------
         LAND SURFACE =         139443.43           LAND SURFACE =         -82002.01
            SOIL ZONE =        1158051.24              SOIL ZONE =          52036.00
     UNSATURATED ZONE =       -1116581.41       UNSATURATED ZONE =         -13684.19
       SATURATED ZONE =        -234553.80         SATURATED ZONE =          -5026.82

 OVERALL BUDGET ERROR =          -4243.25           BUDGET ERROR =            -56.93


  PERCENT DISCREPANCY =             -0.20    PERCENT DISCREPANCY =             -0.12



1
 SUMMARY VOLUMETRIC BUDGET FOR GSFLOW 
 DATE: 12 09 1980              CUMULATIVE TIME STEP:      70
 MODFLOW STRESS PERIOD      2     CURRENT TIME STEP:      70     ITERATIONS:       7

 -----------------------------------------------------------------------------------

   CUMULATIVE VOLUMES               L**3   RATES FOR THIS TIME STEP           L**3/T
   ------------------                      ------------------------

                                     IN                                         IN
                                     --                                         --
        PRECIPITATION =        4284363.13          PRECIPITATION =                  
           STREAMFLOW =                               STREAMFLOW =                  
     GW BOUNDARY FLOW =                         GW BOUNDARY FLOW =                  


                                    OUT                                        OUT
                                    ---                                        ---
   EVAPOTRANSPIRATION =        1617203.41     EVAPOTRANSPIRATION =           4180.71
           STREAMFLOW =         588542.74             STREAMFLOW =          12698.50
     GW BOUNDARY FLOW =          45418.22       GW BOUNDARY FLOW =            649.39

   INFLOWS - OUTFLOWS =        2033198.75     INFLOWS - OUTFLOWS =         -17528.60
             --------                                   --------

 TOTAL STORAGE CHANGE =        2037900.86         STORAGE CHANGE =         -17459.42
       --------------                             --------------
         LAND SURFACE =        2319000.21           LAND SURFACE =          -4180.71
            SOIL ZONE =        1209360.98              SOIL ZONE =           6887.46
     UNSATURATED ZONE =       -1216111.58       UNSATURATED ZONE =         -14239.88
       SATURATED ZONE =        -274348.75         SATURATED ZONE =          -5926.28

 OVERALL BUDGET ERROR =          -4702.11           BUDGET ERROR =            -69.19


  PERCENT DISCREPANCY =             -0.11    PERCENT DISCREPANCY =             -0.40



1
 SUMMARY VOLUMETRIC BUDGET FOR GSFLOW 
 DATE: 12 16 1980              CUMULATIVE TIME STEP:      77
 MODFLOW STRESS PERIOD      2     CURRENT TIME STEP:      77     ITERATIONS:       7

 -----------------------------------------------------------------------------------

   CUMULATIVE VOLUMES               L**3   RATES FOR THIS TIME STEP           L**3/T
   ------------------                      ------------------------

                                     IN                                         IN
                                     --                                         --
        PRECIPITATION =        4284363.13          PRECIPITATION =                  
           STREAMFLOW =                               STREAMFLOW =                  
     GW BOUNDARY FLOW =                         GW BOUNDARY FLOW =                  


                                    OUT                                        OUT
                                    ---                                        ---
   EVAPOTRANSPIRATION =        1768299.21     EVAPOTRANSPIRATION =          35036.08
           STREAMFLOW =         695504.83             STREAMFLOW =          22579.40
     GW BOUNDARY FLOW =          49965.13       GW BOUNDARY FLOW =            649.99

   INFLOWS - OUTFLOWS =        1770593.96     INFLOWS - OUTFLOWS =         -58265.47
             --------                                   --------

 TOTAL STORAGE CHANGE =        1775726.33         STORAGE CHANGE =         -58201.71
       --------------                             --------------
         LAND SURFACE =        1981773.89           LAND SURFACE =        -138704.97
            SOIL ZONE =        1416265.90              SOIL ZONE =          94789.06
     UNSATURATED ZONE =       -1307301.26       UNSATURATED ZONE =          -9696.78
       SATURATED ZONE =        -315012.20         SATURATED ZONE =          -4589.01

 OVERALL BUDGET ERROR =          -5132.37           BUDGET ERROR =            -63.76


  PERCENT DISCREPANCY =             -0.12    PERCENT DISCREPANCY =             -0.11



1
 SUMMARY VOLUMETRIC BUDGET FOR GSFLOW 
 DATE: 12 23 1980              CUMULATIVE TIME STEP:      84
 MODFLOW STRESS PERIOD      2     CURRENT TIME STEP:      84     ITERATIONS:       9

 -----------------------------------------------------------------------------------

   CUMULATIVE VOLUMES               L**3   RATES FOR THIS TIME STEP           L**3/T
   ------------------                      ------------------------

                                     IN                                         IN
                                     --                                         --
        PRECIPITATION =        4516755.31          PRECIPITATION =                  
           STREAMFLOW =                               STREAMFLOW =                  
     GW BOUNDARY FLOW =                         GW BOUNDARY FLOW =                  


                                    OUT                                        OUT
                                    ---                                        ---
   EVAPOTRANSPIRATION =        1971009.49     EVAPOTRANSPIRATION =          34714.82
           STREAMFLOW =         914867.42             STREAMFLOW =          30082.06
     GW BOUNDARY FLOW =          54524.36       GW BOUNDARY FLOW =            651.84

   INFLOWS - OUTFLOWS =        1576354.04     INFLOWS - OUTFLOWS =         -65448.73
             --------                                   --------

 TOTAL STORAGE CHANGE =        1581745.91         STORAGE CHANGE =         -65414.54
       --------------                             --------------
         LAND SURFACE =        1331470.56           LAND SURFACE =         -52543.77
            SOIL ZONE =        1948670.97              SOIL ZONE =          -1694.39
     UNSATURATED ZONE =       -1354702.69       UNSATURATED ZONE =          -6624.37
       SATURATED ZONE =        -343692.93         SATURATED ZONE =          -4552.01

 OVERALL BUDGET ERROR =          -5391.87           BUDGET ERROR =            -34.19


  PERCENT DISCREPANCY =             -0.12    PERCENT DISCREPANCY =             -0.05



1
 SUMMARY VOLUMETRIC BUDGET FOR GSFLOW 
 DATE: 12 30 1980              CUMULATIVE TIME STEP:      91
 MODFLOW STRESS PERIOD      2     CURRENT TIME STEP:      91     ITERATIONS:      10

 -----------------------------------------------------------------------------------

   CUMULATIVE VOLUMES               L**3   RATES FOR THIS TIME STEP           L**3/T
   ------------------                      ------------------------

                                     IN                                         IN
                                     --                                         --
        PRECIPITATION =        4516755.31          PRECIPITATION =                  
           STREAMFLOW =                               STREAMFLOW =                  
     GW BOUNDARY FLOW =                         GW BOUNDARY FLOW =                  


                                    OUT                                        OUT
                                    ---                                        ---
   EVAPOTRANSPIRATION =        2293572.03     EVAPOTRANSPIRATION =          42509.72
           STREAMFLOW =        1159781.83             STREAMFLOW =          27625.17
     GW BOUNDARY FLOW =          59090.80       GW BOUNDARY FLOW =            652.37

   INFLOWS - OUTFLOWS =        1004310.65     INFLOWS - OUTFLOWS =         -70787.26
             --------                                   --------

 TOTAL STORAGE CHANGE =        1009845.71         STORAGE CHANGE =         -70773.32
       --------------                             --------------
         LAND SURFACE =         529446.97           LAND SURFACE =         -41358.17
            SOIL ZONE =        2220834.76              SOIL ZONE =         -21326.61
     UNSATURATED ZONE =       -1369996.22       UNSATURATED ZONE =          -3630.81
       SATURATED ZONE =        -370439.79         SATURATED ZONE =          -4457.73

 OVERALL BUDGET ERROR =          -5535.06           BUDGET ERROR =            -13.94


  PERCENT DISCREPANCY =             -0.12    PERCENT DISCREPANCY =             -0.02



1
 SUMMARY VOLUMETRIC BUDGET FOR GSFLOW 
 DATE: 01 06 1981              CUMULATIVE TIME STEP:      98
 MODFLOW STRESS PERIOD      2     CURRENT TIME STEP:      98     ITERATIONS:       8

 -----------------------------------------------------------------------------------

   CUMULATIVE VOLUMES               L**3   RATES FOR THIS TIME STEP           L**3/T
   ------------------                      ------------------------

                                     IN                                         IN
                                     --                                         --
        PRECIPITATION =        5004445.82          PRECIPITATION =                  
           STREAMFLOW =                               STREAMFLOW =                  
     GW BOUNDARY FLOW =                         GW BOUNDARY FLOW =                  


                                    OUT                                        OUT
                                    ---                                        ---
   EVAPOTRANSPIRATION =        2505988.81     EVAPOTRANSPIRATION =          21276.31
           STREAMFLOW =        1310048.98             STREAMFLOW =          20286.54
     GW BOUNDARY FLOW =          63651.75       GW BOUNDARY FLOW =            651.10

   INFLOWS - OUTFLOWS =        1124756.27     INFLOWS - OUTFLOWS =         -42213.95
             --------                                   --------

 TOTAL STORAGE CHANGE =        1130439.25         STORAGE CHANGE =         -42180.83
       --------------                             --------------
         LAND SURFACE =         783105.33           LAND SURFACE =         -28174.19
            SOIL ZONE =        2194681.87              SOIL ZONE =           3303.28
     UNSATURATED ZONE =       -1437398.66       UNSATURATED ZONE =         -11346.52
       SATURATED ZONE =        -409949.30         SATURATED ZONE =          -5963.40

 OVERALL BUDGET ERROR =          -5682.98           BUDGET ERROR =            -33.13


  PERCENT DISCREPANCY =             -0.11    PERCENT DISCREPANCY =             -0.08



1
 SUMMARY VOLUMETRIC BUDGET FOR GSFLOW 
 DATE: 01 13 1981              CUMULATIVE TIME STEP:     105
 MODFLOW STRESS PERIOD      2     CURRENT TIME STEP:     105     ITERATIONS:       7

 -----------------------------------------------------------------------------------

   CUMULATIVE VOLUMES               L**3   RATES FOR THIS TIME STEP           L**3/T
   ------------------                      ------------------------

                                     IN                                         IN
                                     --                                         --
        PRECIPITATION =        5004445.82          PRECIPITATION =                  
           STREAMFLOW =                               STREAMFLOW =                  
     GW BOUNDARY FLOW =                         GW BOUNDARY FLOW =                  


                                    OUT                                        OUT
                                    ---                                        ---
   EVAPOTRANSPIRATION =        2702986.54     EVAPOTRANSPIRATION =          40639.08
           STREAMFLOW =        1457276.47             STREAMFLOW =          20406.46
     GW BOUNDARY FLOW =          68208.41       GW BOUNDARY FLOW =            650.83

   INFLOWS - OUTFLOWS =         775974.39     INFLOWS - OUTFLOWS =         -61696.37
             --------                                   --------

 TOTAL STORAGE CHANGE =         781995.31         STORAGE CHANGE =         -61645.60
       --------------                             --------------
         LAND SURFACE =         556998.15           LAND SURFACE =         -38369.48
            SOIL ZONE =        2181987.03              SOIL ZONE =          -7985.50
     UNSATURATED ZONE =       -1503170.11       UNSATURATED ZONE =          -8735.55
       SATURATED ZONE =        -453819.76         SATURATED ZONE =          -6555.06

 OVERALL BUDGET ERROR =          -6020.92           BUDGET ERROR =            -50.76


  PERCENT DISCREPANCY =             -0.12    PERCENT DISCREPANCY =             -0.08



1
 SUMMARY VOLUMETRIC BUDGET FOR GSFLOW 
 DATE: 01 20 1981              CUMULATIVE TIME STEP:     112
 MODFLOW STRESS PERIOD      2     CURRENT TIME STEP:     112     ITERATIONS:       8

 -----------------------------------------------------------------------------------

   CUMULATIVE VOLUMES               L**3   RATES FOR THIS TIME STEP           L**3/T
   ------------------                      ------------------------

                                     IN                                         IN
                                     --                                         --
        PRECIPITATION =        5170468.48          PRECIPITATION =          41503.16
           STREAMFLOW =                               STREAMFLOW =                  
     GW BOUNDARY FLOW =                         GW BOUNDARY FLOW =                  


                                    OUT                                        OUT
                                    ---                                        ---
   EVAPOTRANSPIRATION =        2994318.15     EVAPOTRANSPIRATION =          53689.72
           STREAMFLOW =        1598705.75             STREAMFLOW =          19728.99
     GW BOUNDARY FLOW =          72763.12       GW BOUNDARY FLOW =            650.59

   INFLOWS - OUTFLOWS =         504681.46     INFLOWS - OUTFLOWS =         -32566.13
             --------                                   --------

 TOTAL STORAGE CHANGE =         510982.70         STORAGE CHANGE =         -32531.08
       --------------                             --------------
         LAND SURFACE =         392560.19           LAND SURFACE =           1262.98
            SOIL ZONE =        2158054.49              SOIL ZONE =         -24323.44
     UNSATURATED ZONE =       -1539212.18       UNSATURATED ZONE =          -2613.16
       SATURATED ZONE =        -500419.81         SATURATED ZONE =          -6857.45

 OVERALL BUDGET ERROR =          -6301.23           BUDGET ERROR =            -35.06


  PERCENT DISCREPANCY =             -0.12    PERCENT DISCREPANCY =             -0.05



1
 SUMMARY VOLUMETRIC BUDGET FOR GSFLOW 
 DATE: 01 27 1981              CUMULATIVE TIME STEP:     119
 MODFLOW STRESS PERIOD      2     CURRENT TIME STEP:     119     ITERATIONS:       8

 -----------------------------------------------------------------------------------

   CUMULATIVE VOLUMES               L**3   RATES FOR THIS TIME STEP           L**3/T
   ------------------                      ------------------------

                                     IN                                         IN
                                     --                                         --
        PRECIPITATION =        8646542.90          PRECIPITATION =        2936504.96
           STREAMFLOW =                               STREAMFLOW =                  
     GW BOUNDARY FLOW =                         GW BOUNDARY FLOW =                  


                                    OUT                                        OUT
                                    ---                                        ---
   EVAPOTRANSPIRATION =        3224802.94     EVAPOTRANSPIRATION =          12593.32
           STREAMFLOW =        1734094.91             STREAMFLOW =          17943.94
     GW BOUNDARY FLOW =          77316.41       GW BOUNDARY FLOW =            650.32

   INFLOWS - OUTFLOWS =        3610328.64     INFLOWS - OUTFLOWS =        2905317.39
             --------                                   --------

 TOTAL STORAGE CHANGE =        3616790.22         STORAGE CHANGE =        2905343.60
       --------------                             --------------
         LAND SURFACE =        3531533.77           LAND SURFACE =        2923911.72
            SOIL ZONE =        2179850.15              SOIL ZONE =          -4865.18
     UNSATURATED ZONE =       -1547307.10       UNSATURATED ZONE =          -6512.76
       SATURATED ZONE =        -547286.61         SATURATED ZONE =          -7190.18

 OVERALL BUDGET ERROR =          -6461.57           BUDGET ERROR =            -26.22


  PERCENT DISCREPANCY =             -0.07    PERCENT DISCREPANCY =             -0.00



1
 SUMMARY VOLUMETRIC BUDGET FOR GSFLOW 
 DATE: 02 03 1981              CUMULATIVE TIME STEP:     126
 MODFLOW STRESS PERIOD      2     CURRENT TIME STEP:     126     ITERATIONS:       9

 -----------------------------------------------------------------------------------

   CUMULATIVE VOLUMES               L**3   RATES FOR THIS TIME STEP           L**3/T
   ------------------                      ------------------------

                                     IN                                         IN
                                     --                                         --
        PRECIPITATION =        1.1739D+07          PRECIPITATION =                  
           STREAMFLOW =                               STREAMFLOW =                  
     GW BOUNDARY FLOW =                         GW BOUNDARY FLOW =                  


                                    OUT                                        OUT
                                    ---                                        ---
   EVAPOTRANSPIRATION =        3262151.42     EVAPOTRANSPIRATION =           8130.85
           STREAMFLOW =        1858174.45             STREAMFLOW =          17764.42
     GW BOUNDARY FLOW =          81867.97       GW BOUNDARY FLOW =            650.21

   INFLOWS - OUTFLOWS =        6536503.94     INFLOWS - OUTFLOWS =         -26545.48
             --------                                   --------

 TOTAL STORAGE CHANGE =        6543221.63         STORAGE CHANGE =         -26524.21
       --------------                             --------------
         LAND SURFACE =        6586340.18           LAND SURFACE =          -8130.85
            SOIL ZONE =        2176000.12              SOIL ZONE =            715.13
     UNSATURATED ZONE =       -1618385.50       UNSATURATED ZONE =         -11204.07
       SATURATED ZONE =        -600733.17         SATURATED ZONE =          -7904.42

 OVERALL BUDGET ERROR =          -6717.69           BUDGET ERROR =            -21.27


  PERCENT DISCREPANCY =             -0.06    PERCENT DISCREPANCY =             -0.08



1
 SUMMARY VOLUMETRIC BUDGET FOR GSFLOW 
 DATE: 02 10 1981              CUMULATIVE TIME STEP:     133
 MODFLOW STRESS PERIOD      2     CURRENT TIME STEP:     133     ITERATIONS:       8

 -----------------------------------------------------------------------------------

   CUMULATIVE VOLUMES               L**3   RATES FOR THIS TIME STEP           L**3/T
   ------------------                      ------------------------

                                     IN                                         IN
                                     --                                         --
        PRECIPITATION =        1.1838D+07          PRECIPITATION =                  
           STREAMFLOW =                               STREAMFLOW =                  
     GW BOUNDARY FLOW =                         GW BOUNDARY FLOW =                  


                                    OUT                                        OUT
                                    ---                                        ---
   EVAPOTRANSPIRATION =        3395953.77     EVAPOTRANSPIRATION =          34657.17
           STREAMFLOW =        1983244.12             STREAMFLOW =          17924.29
     GW BOUNDARY FLOW =          86419.50       GW BOUNDARY FLOW =            650.21

   INFLOWS - OUTFLOWS =        6372645.85     INFLOWS - OUTFLOWS =         -53231.68
             --------                                   --------

 TOTAL STORAGE CHANGE =        6379616.04         STORAGE CHANGE =         -53195.58
       --------------                             --------------
         LAND SURFACE =        6552103.29           LAND SURFACE =         -34657.17
            SOIL ZONE =        2180949.24              SOIL ZONE =            615.06
     UNSATURATED ZONE =       -1695095.86       UNSATURATED ZONE =         -10652.86
       SATURATED ZONE =        -658340.63         SATURATED ZONE =          -8500.61

 OVERALL BUDGET ERROR =          -6970.19           BUDGET ERROR =            -36.10


  PERCENT DISCREPANCY =             -0.06    PERCENT DISCREPANCY =             -0.07



1
 SUMMARY VOLUMETRIC BUDGET FOR GSFLOW 
 DATE: 02 17 1981              CUMULATIVE TIME STEP:     140
 MODFLOW STRESS PERIOD      2     CURRENT TIME STEP:     140     ITERATIONS:      14

 -----------------------------------------------------------------------------------

   CUMULATIVE VOLUMES               L**3   RATES FOR THIS TIME STEP           L**3/T
   ------------------                      ------------------------

                                     IN                                         IN
                                     --                                         --
        PRECIPITATION =        1.2765D+07          PRECIPITATION =          68928.68
           STREAMFLOW =                               STREAMFLOW =                  
     GW BOUNDARY FLOW =                         GW BOUNDARY FLOW =                  


                                    OUT                                        OUT
                                    ---                                        ---
   EVAPOTRANSPIRATION =        3739154.13     EVAPOTRANSPIRATION =          68126.97
           STREAMFLOW =        2507226.89             STREAMFLOW =         124815.30
     GW BOUNDARY FLOW =          90992.26       GW BOUNDARY FLOW =            656.72

   INFLOWS - OUTFLOWS =        6427607.38     INFLOWS - OUTFLOWS =        -124670.31
             --------                                   --------

 TOTAL STORAGE CHANGE =        6434808.55         STORAGE CHANGE =        -124665.64
       --------------                             --------------
         LAND SURFACE =        5604894.48           LAND SURFACE =        -287595.36
            SOIL ZONE =        2962774.56              SOIL ZONE =          82395.60
     UNSATURATED ZONE =       -1455515.20       UNSATURATED ZONE =          78468.07
       SATURATED ZONE =        -677345.29         SATURATED ZONE =           2066.05

 OVERALL BUDGET ERROR =          -7201.17           BUDGET ERROR =             -4.67


  PERCENT DISCREPANCY =             -0.06    PERCENT DISCREPANCY =             -0.00



1
 SUMMARY VOLUMETRIC BUDGET FOR GSFLOW 
 DATE: 02 24 1981              CUMULATIVE TIME STEP:     147
 MODFLOW STRESS PERIOD      2     CURRENT TIME STEP:     147     ITERATIONS:      14

 -----------------------------------------------------------------------------------

   CUMULATIVE VOLUMES               L**3   RATES FOR THIS TIME STEP           L**3/T
   ------------------                      ------------------------

                                     IN                                         IN
                                     --                                         --
        PRECIPITATION =        1.3179D+07          PRECIPITATION =         344647.71
           STREAMFLOW =                               STREAMFLOW =                  
     GW BOUNDARY FLOW =                         GW BOUNDARY FLOW =                  


                                    OUT                                        OUT
                                    ---                                        ---
   EVAPOTRANSPIRATION =        4088041.78     EVAPOTRANSPIRATION =          19832.91
           STREAMFLOW =        3094581.70             STREAMFLOW =          53170.65
     GW BOUNDARY FLOW =          95587.35       GW BOUNDARY FLOW =            655.43

   INFLOWS - OUTFLOWS =        5900347.62     INFLOWS - OUTFLOWS =         270988.72
             --------                                   --------

 TOTAL STORAGE CHANGE =        5907453.38         STORAGE CHANGE =         270966.06
       --------------                             --------------
         LAND SURFACE =        4925109.93           LAND SURFACE =         300251.60
            SOIL ZONE =        2710057.14              SOIL ZONE =         -63440.84
     UNSATURATED ZONE =       -1075263.03       UNSATURATED ZONE =          31295.00
       SATURATED ZONE =        -652450.65         SATURATED ZONE =           2860.30

 OVERALL BUDGET ERROR =          -7105.76           BUDGET ERROR =             22.66


  PERCENT DISCREPANCY =             -0.05    PERCENT DISCREPANCY =              0.01



1
 SUMMARY VOLUMETRIC BUDGET FOR GSFLOW 
 DATE: 03 03 1981              CUMULATIVE TIME STEP:     154
 MODFLOW STRESS PERIOD      2     CURRENT TIME STEP:     154     ITERATIONS:      11

 -----------------------------------------------------------------------------------

   CUMULATIVE VOLUMES               L**3   RATES FOR THIS TIME STEP           L**3/T
   ------------------                      ------------------------

                                     IN                                         IN
                                     --                                         --
        PRECIPITATION =        1.3447D+07          PRECIPITATION =                  
           STREAMFLOW =                               STREAMFLOW =                  
     GW BOUNDARY FLOW =                         GW BOUNDARY FLOW =                  


                                    OUT                                        OUT
                                    ---                                        ---
   EVAPOTRANSPIRATION =        4250535.53     EVAPOTRANSPIRATION =          44390.12
           STREAMFLOW =        3320742.79             STREAMFLOW =          27377.70
     GW BOUNDARY FLOW =         100160.83       GW BOUNDARY FLOW =            652.32

   INFLOWS - OUTFLOWS =        5775179.64     INFLOWS - OUTFLOWS =         -72420.13
             --------                                   --------

 TOTAL STORAGE CHANGE =        5782140.91         STORAGE CHANGE =         -72448.85
       --------------                             --------------
         LAND SURFACE =        5011972.62           LAND SURFACE =         -61722.17
            SOIL ZONE =        2487178.95              SOIL ZONE =           -186.42
     UNSATURATED ZONE =       -1061414.99       UNSATURATED ZONE =          -8368.43
       SATURATED ZONE =        -655595.68         SATURATED ZONE =          -2171.83

 OVERALL BUDGET ERROR =          -6961.27           BUDGET ERROR =             28.72


  PERCENT DISCREPANCY =             -0.05    PERCENT DISCREPANCY =              0.04



1
 SUMMARY VOLUMETRIC BUDGET FOR GSFLOW 
 DATE: 03 10 1981              CUMULATIVE TIME STEP:     161
 MODFLOW STRESS PERIOD      2     CURRENT TIME STEP:     161     ITERATIONS:      11

 -----------------------------------------------------------------------------------

   CUMULATIVE VOLUMES               L**3   RATES FOR THIS TIME STEP           L**3/T
   ------------------                      ------------------------

                                     IN                                         IN
                                     --                                         --
        PRECIPITATION =        1.3493D+07          PRECIPITATION =                  
           STREAMFLOW =                               STREAMFLOW =                  
     GW BOUNDARY FLOW =                         GW BOUNDARY FLOW =                  


                                    OUT                                        OUT
                                    ---                                        ---
   EVAPOTRANSPIRATION =        4564180.33     EVAPOTRANSPIRATION =          62828.56
           STREAMFLOW =        3554012.98             STREAMFLOW =          43688.68
     GW BOUNDARY FLOW =         104726.86       GW BOUNDARY FLOW =            652.96

   INFLOWS - OUTFLOWS =        5270034.34     INFLOWS - OUTFLOWS =        -107170.19
             --------                                   --------

 TOTAL STORAGE CHANGE =        5276879.29         STORAGE CHANGE =        -107189.72
       --------------                             --------------
         LAND SURFACE =        4369723.84           LAND SURFACE =        -162552.80
            SOIL ZONE =        2609740.40              SOIL ZONE =          33779.48
     UNSATURATED ZONE =       -1034250.23       UNSATURATED ZONE =          22007.57
       SATURATED ZONE =        -668334.73         SATURATED ZONE =           -423.96

 OVERALL BUDGET ERROR =          -6844.95           BUDGET ERROR =             19.53


  PERCENT DISCREPANCY =             -0.05    PERCENT DISCREPANCY =              0.02



1
 SUMMARY VOLUMETRIC BUDGET FOR GSFLOW 
 DATE: 03 17 1981              CUMULATIVE TIME STEP:     168
 MODFLOW STRESS PERIOD      2     CURRENT TIME STEP:     168     ITERATIONS:       9

 -----------------------------------------------------------------------------------

   CUMULATIVE VOLUMES               L**3   RATES FOR THIS TIME STEP           L**3/T
   ------------------                      ------------------------

                                     IN                                         IN
                                     --                                         --
        PRECIPITATION =        1.3745D+07          PRECIPITATION =                  
           STREAMFLOW =                               STREAMFLOW =                  
     GW BOUNDARY FLOW =                         GW BOUNDARY FLOW =                  


                                    OUT                                        OUT
                                    ---                                        ---
   EVAPOTRANSPIRATION =        4920409.78     EVAPOTRANSPIRATION =          39557.19
           STREAMFLOW =        3784342.46             STREAMFLOW =          24098.60
     GW BOUNDARY FLOW =         109294.66       GW BOUNDARY FLOW =            651.98

   INFLOWS - OUTFLOWS =        4930455.93     INFLOWS - OUTFLOWS =         -64307.77
             --------                                   --------

 TOTAL STORAGE CHANGE =        4937182.19         STORAGE CHANGE =         -64313.62
       --------------                             --------------
         LAND SURFACE =        4198119.47           LAND SURFACE =         -39206.25
            SOIL ZONE =        2433278.99              SOIL ZONE =          -5036.09
     UNSATURATED ZONE =       -1009883.26       UNSATURATED ZONE =         -15707.03
       SATURATED ZONE =        -684333.01         SATURATED ZONE =          -4364.26

 OVERALL BUDGET ERROR =          -6726.26           BUDGET ERROR =              5.85


  PERCENT DISCREPANCY =             -0.05    PERCENT DISCREPANCY =              0.01



1
 SUMMARY VOLUMETRIC BUDGET FOR GSFLOW 
 DATE: 03 24 1981              CUMULATIVE TIME STEP:     175
 MODFLOW STRESS PERIOD      2     CURRENT TIME STEP:     175     ITERATIONS:       9

 -----------------------------------------------------------------------------------

   CUMULATIVE VOLUMES               L**3   RATES FOR THIS TIME STEP           L**3/T
   ------------------                      ------------------------

                                     IN                                         IN
                                     --                                         --
        PRECIPITATION =        1.4367D+07          PRECIPITATION =                  
           STREAMFLOW =                               STREAMFLOW =                  
     GW BOUNDARY FLOW =                         GW BOUNDARY FLOW =                  


                                    OUT                                        OUT
                                    ---                                        ---
   EVAPOTRANSPIRATION =        5273482.22     EVAPOTRANSPIRATION =          85696.82
           STREAMFLOW =        3951700.75             STREAMFLOW =          25416.26
     GW BOUNDARY FLOW =         113854.67       GW BOUNDARY FLOW =            651.32

   INFLOWS - OUTFLOWS =        5027718.59     INFLOWS - OUTFLOWS =        -111764.40
             --------                                   --------

 TOTAL STORAGE CHANGE =        5034428.27         STORAGE CHANGE =        -111762.62
       --------------                             --------------
         LAND SURFACE =        4528959.93           LAND SURFACE =         -63588.50
            SOIL ZONE =        2318228.44              SOIL ZONE =         -36222.57
     UNSATURATED ZONE =       -1092459.66       UNSATURATED ZONE =          -6588.17
       SATURATED ZONE =        -720300.44         SATURATED ZONE =          -5363.38

 OVERALL BUDGET ERROR =          -6709.68           BUDGET ERROR =             -1.78


  PERCENT DISCREPANCY =             -0.05    PERCENT DISCREPANCY =             -0.00



1
 SUMMARY VOLUMETRIC BUDGET FOR GSFLOW 
 DATE: 03 31 1981              CUMULATIVE TIME STEP:     182
 MODFLOW STRESS PERIOD      2     CURRENT TIME STEP:     182     ITERATIONS:      12

 -----------------------------------------------------------------------------------

   CUMULATIVE VOLUMES               L**3   RATES FOR THIS TIME STEP           L**3/T
   ------------------                      ------------------------

                                     IN                                         IN
                                     --                                         --
        PRECIPITATION =        1.5777D+07          PRECIPITATION =                  
           STREAMFLOW =                               STREAMFLOW =                  
     GW BOUNDARY FLOW =                         GW BOUNDARY FLOW =                  


                                    OUT                                        OUT
                                    ---                                        ---
   EVAPOTRANSPIRATION =        5698991.57     EVAPOTRANSPIRATION =          55421.24
           STREAMFLOW =        4403780.14             STREAMFLOW =          33571.42
     GW BOUNDARY FLOW =         118433.50       GW BOUNDARY FLOW =            653.21

   INFLOWS - OUTFLOWS =        5555560.97     INFLOWS - OUTFLOWS =         -89645.87
             --------                                   --------

 TOTAL STORAGE CHANGE =        5562162.53         STORAGE CHANGE =         -89669.71
       --------------                             --------------
         LAND SURFACE =        4697103.43           LAND SURFACE =         -55743.36
            SOIL ZONE =        2494681.63              SOIL ZONE =         -31856.35
     UNSATURATED ZONE =        -907964.91       UNSATURATED ZONE =           -186.47
       SATURATED ZONE =        -721657.62         SATURATED ZONE =          -1883.53

 OVERALL BUDGET ERROR =          -6601.56           BUDGET ERROR =             23.84


  PERCENT DISCREPANCY =             -0.04    PERCENT DISCREPANCY =              0.03



1
 SUMMARY VOLUMETRIC BUDGET FOR GSFLOW 
 DATE: 04 07 1981              CUMULATIVE TIME STEP:     189
 MODFLOW STRESS PERIOD      2     CURRENT TIME STEP:     189     ITERATIONS:      10

 -----------------------------------------------------------------------------------

   CUMULATIVE VOLUMES               L**3   RATES FOR THIS TIME STEP           L**3/T
   ------------------                      ------------------------

                                     IN                                         IN
                                     --                                         --
        PRECIPITATION =        1.6121D+07          PRECIPITATION =                  
           STREAMFLOW =                               STREAMFLOW =                  
     GW BOUNDARY FLOW =                         GW BOUNDARY FLOW =                  


                                    OUT                                        OUT
                                    ---                                        ---
   EVAPOTRANSPIRATION =        6344596.16     EVAPOTRANSPIRATION =         106275.95
           STREAMFLOW =        4701337.32             STREAMFLOW =          42354.04
     GW BOUNDARY FLOW =         123007.01       GW BOUNDARY FLOW =            653.61

   INFLOWS - OUTFLOWS =        4952542.65     INFLOWS - OUTFLOWS =        -149283.60
             --------                                   --------

 TOTAL STORAGE CHANGE =        4959000.95         STORAGE CHANGE =        -149311.26
       --------------                             --------------
         LAND SURFACE =        4078016.32           LAND SURFACE =        -145758.59
            SOIL ZONE =        2453554.94              SOIL ZONE =         -13406.32
     UNSATURATED ZONE =        -845171.37       UNSATURATED ZONE =          10306.15
       SATURATED ZONE =        -727398.93         SATURATED ZONE =           -452.50

 OVERALL BUDGET ERROR =          -6458.30           BUDGET ERROR =             27.66


  PERCENT DISCREPANCY =             -0.04    PERCENT DISCREPANCY =              0.02



1
 SUMMARY VOLUMETRIC BUDGET FOR GSFLOW 
 DATE: 04 14 1981              CUMULATIVE TIME STEP:     196
 MODFLOW STRESS PERIOD      2     CURRENT TIME STEP:     196     ITERATIONS:      12

 -----------------------------------------------------------------------------------

   CUMULATIVE VOLUMES               L**3   RATES FOR THIS TIME STEP           L**3/T
   ------------------                      ------------------------

                                     IN                                         IN
                                     --                                         --
        PRECIPITATION =        1.6121D+07          PRECIPITATION =                  
           STREAMFLOW =                               STREAMFLOW =                  
     GW BOUNDARY FLOW =                         GW BOUNDARY FLOW =                  


                                    OUT                                        OUT
                                    ---                                        ---
   EVAPOTRANSPIRATION =        7271627.21     EVAPOTRANSPIRATION =         190847.08
           STREAMFLOW =        5027082.11             STREAMFLOW =          55478.66
     GW BOUNDARY FLOW =         127581.69       GW BOUNDARY FLOW =            653.53

   INFLOWS - OUTFLOWS =        3695192.15     INFLOWS - OUTFLOWS =        -246979.27
             --------                                   --------

 TOTAL STORAGE CHANGE =        3701474.70         STORAGE CHANGE =        -247002.14
       --------------                             --------------
         LAND SURFACE =        2766600.66           LAND SURFACE =        -261667.29
            SOIL ZONE =        2411535.84              SOIL ZONE =          -7012.00
     UNSATURATED ZONE =        -749692.60       UNSATURATED ZONE =          20261.72
       SATURATED ZONE =        -726969.21         SATURATED ZONE =           1415.43

 OVERALL BUDGET ERROR =          -6282.56           BUDGET ERROR =             22.87


  PERCENT DISCREPANCY =             -0.04    PERCENT DISCREPANCY =              0.01



1
 SUMMARY VOLUMETRIC BUDGET FOR GSFLOW 
 DATE: 04 21 1981              CUMULATIVE TIME STEP:     203
 MODFLOW STRESS PERIOD      2     CURRENT TIME STEP:     203     ITERATIONS:      13

 -----------------------------------------------------------------------------------

   CUMULATIVE VOLUMES               L**3   RATES FOR THIS TIME STEP           L**3/T
   ------------------                      ------------------------

                                     IN                                         IN
                                     --                                         --
        PRECIPITATION =        1.6310D+07          PRECIPITATION =                  
           STREAMFLOW =                               STREAMFLOW =                  
     GW BOUNDARY FLOW =                         GW BOUNDARY FLOW =                  


                                    OUT                                        OUT
                                    ---                                        ---
   EVAPOTRANSPIRATION =        8363754.65     EVAPOTRANSPIRATION =         161807.92
           STREAMFLOW =        5369543.57             STREAMFLOW =          46309.48
     GW BOUNDARY FLOW =         132152.53       GW BOUNDARY FLOW =            652.59

   INFLOWS - OUTFLOWS =        2444806.65     INFLOWS - OUTFLOWS =        -208769.99
             --------                                   --------

 TOTAL STORAGE CHANGE =        2450936.66         STORAGE CHANGE =        -208796.06
       --------------                             --------------
         LAND SURFACE =        1526141.71           LAND SURFACE =        -128414.83
            SOIL ZONE =        2261519.74              SOIL ZONE =        -101008.66
     UNSATURATED ZONE =        -621863.12       UNSATURATED ZONE =          18287.34
       SATURATED ZONE =        -714861.66         SATURATED ZONE =           2340.10

 OVERALL BUDGET ERROR =          -6130.01           BUDGET ERROR =             26.07


  PERCENT DISCREPANCY =             -0.04    PERCENT DISCREPANCY =              0.01



1
 SUMMARY VOLUMETRIC BUDGET FOR GSFLOW 
 DATE: 04 28 1981              CUMULATIVE TIME STEP:     210
 MODFLOW STRESS PERIOD      2     CURRENT TIME STEP:     210     ITERATIONS:      13

 -----------------------------------------------------------------------------------

   CUMULATIVE VOLUMES               L**3   RATES FOR THIS TIME STEP           L**3/T
   ------------------                      ------------------------

                                     IN                                         IN
                                     --                                         --
        PRECIPITATION =        1.6515D+07          PRECIPITATION =                  
           STREAMFLOW =                               STREAMFLOW =                  
     GW BOUNDARY FLOW =                         GW BOUNDARY FLOW =                  


                                    OUT                                        OUT
                                    ---                                        ---
   EVAPOTRANSPIRATION =        9639025.80     EVAPOTRANSPIRATION =         204813.38
           STREAMFLOW =        5578838.69             STREAMFLOW =          23089.74
     GW BOUNDARY FLOW =         136711.59       GW BOUNDARY FLOW =            650.35

   INFLOWS - OUTFLOWS =        1160870.88     INFLOWS - OUTFLOWS =        -228553.47
             --------                                   --------

 TOTAL STORAGE CHANGE =        1166829.33         STORAGE CHANGE =        -228576.57
       --------------                             --------------
         LAND SURFACE =         765041.89           LAND SURFACE =         -86581.37
            SOIL ZONE =        1726817.70              SOIL ZONE =        -137134.51
     UNSATURATED ZONE =        -609657.40       UNSATURATED ZONE =          -3943.79
       SATURATED ZONE =        -715372.87         SATURATED ZONE =           -916.90

 OVERALL BUDGET ERROR =          -5958.45           BUDGET ERROR =             23.10


  PERCENT DISCREPANCY =             -0.04    PERCENT DISCREPANCY =              0.01



1
 SUMMARY VOLUMETRIC BUDGET FOR GSFLOW 
 DATE: 05 05 1981              CUMULATIVE TIME STEP:     217
 MODFLOW STRESS PERIOD      2     CURRENT TIME STEP:     217     ITERATIONS:      14

 -----------------------------------------------------------------------------------

   CUMULATIVE VOLUMES               L**3   RATES FOR THIS TIME STEP           L**3/T
   ------------------                      ------------------------

                                     IN                                         IN
                                     --                                         --
        PRECIPITATION =        1.6515D+07          PRECIPITATION =                  
           STREAMFLOW =                               STREAMFLOW =                  
     GW BOUNDARY FLOW =                         GW BOUNDARY FLOW =                  


                                    OUT                                        OUT
                                    ---                                        ---
   EVAPOTRANSPIRATION =        1.0549D+07     EVAPOTRANSPIRATION =          58124.94
           STREAMFLOW =        5677334.92             STREAMFLOW =          10201.88
     GW BOUNDARY FLOW =         141256.98       GW BOUNDARY FLOW =            648.68

   INFLOWS - OUTFLOWS =         148246.90     INFLOWS - OUTFLOWS =         -68975.50
             --------                                   --------

 TOTAL STORAGE CHANGE =         154097.24         STORAGE CHANGE =         -68989.68
       --------------                             --------------
         LAND SURFACE =         399244.39           LAND SURFACE =         -19315.26
            SOIL ZONE =        1189273.54              SOIL ZONE =         -30744.41
     UNSATURATED ZONE =        -699919.26       UNSATURATED ZONE =         -15808.52
       SATURATED ZONE =        -734501.43         SATURATED ZONE =          -3121.49

 OVERALL BUDGET ERROR =          -5850.33           BUDGET ERROR =             14.18


  PERCENT DISCREPANCY =             -0.04    PERCENT DISCREPANCY =              0.02



1
 SUMMARY VOLUMETRIC BUDGET FOR GSFLOW 
 DATE: 05 12 1981              CUMULATIVE TIME STEP:     224
 MODFLOW STRESS PERIOD      2     CURRENT TIME STEP:     224     ITERATIONS:      11

 -----------------------------------------------------------------------------------

   CUMULATIVE VOLUMES               L**3   RATES FOR THIS TIME STEP           L**3/T
   ------------------                      ------------------------

                                     IN                                         IN
                                     --                                         --
        PRECIPITATION =        1.6515D+07          PRECIPITATION =                  
           STREAMFLOW =                               STREAMFLOW =                  
     GW BOUNDARY FLOW =                         GW BOUNDARY FLOW =                  


                                    OUT                                        OUT
                                    ---                                        ---
   EVAPOTRANSPIRATION =        1.1081D+07     EVAPOTRANSPIRATION =          95112.79
           STREAMFLOW =        5745477.68             STREAMFLOW =          10246.32
     GW BOUNDARY FLOW =         145795.04       GW BOUNDARY FLOW =            648.16

   INFLOWS - OUTFLOWS =        -456756.11     INFLOWS - OUTFLOWS =        -106007.27
             --------                                   --------

 TOTAL STORAGE CHANGE =        -450996.41         STORAGE CHANGE =        -106019.61
       --------------                             --------------
         LAND SURFACE =         236028.85           LAND SURFACE =         -28466.58
            SOIL ZONE =         880799.52              SOIL ZONE =         -59216.90
     UNSATURATED ZONE =        -801645.47       UNSATURATED ZONE =         -12884.95
       SATURATED ZONE =        -766179.31         SATURATED ZONE =          -5451.18

 OVERALL BUDGET ERROR =          -5759.71           BUDGET ERROR =             12.34


  PERCENT DISCREPANCY =             -0.03    PERCENT DISCREPANCY =              0.01



1
 SUMMARY VOLUMETRIC BUDGET FOR GSFLOW 
 DATE: 05 19 1981              CUMULATIVE TIME STEP:     231
 MODFLOW STRESS PERIOD      2     CURRENT TIME STEP:     231     ITERATIONS:      14

 -----------------------------------------------------------------------------------

   CUMULATIVE VOLUMES               L**3   RATES FOR THIS TIME STEP           L**3/T
   ------------------                      ------------------------

                                     IN                                         IN
                                     --                                         --
        PRECIPITATION =        1.7837D+07          PRECIPITATION =         169047.83
           STREAMFLOW =                               STREAMFLOW =                  
     GW BOUNDARY FLOW =                         GW BOUNDARY FLOW =                  


                                    OUT                                        OUT
                                    ---                                        ---
   EVAPOTRANSPIRATION =        1.1494D+07     EVAPOTRANSPIRATION =          34209.10
           STREAMFLOW =        5864981.41             STREAMFLOW =          21952.64
     GW BOUNDARY FLOW =         150333.89       GW BOUNDARY FLOW =            649.27

   INFLOWS - OUTFLOWS =         327836.80     INFLOWS - OUTFLOWS =         112236.83
             --------                                   --------

 TOTAL STORAGE CHANGE =         333543.88         STORAGE CHANGE =         112229.30
       --------------                             --------------
         LAND SURFACE =         199378.22           LAND SURFACE =          20104.58
            SOIL ZONE =        1807794.85              SOIL ZONE =         100102.06
     UNSATURATED ZONE =        -864545.88       UNSATURATED ZONE =          -1263.98
       SATURATED ZONE =        -809083.32         SATURATED ZONE =          -6713.37

 OVERALL BUDGET ERROR =          -5707.07           BUDGET ERROR =              7.53


  PERCENT DISCREPANCY =             -0.03    PERCENT DISCREPANCY =              0.00



1
 SUMMARY VOLUMETRIC BUDGET FOR GSFLOW 
 DATE: 05 26 1981              CUMULATIVE TIME STEP:     238
 MODFLOW STRESS PERIOD      2     CURRENT TIME STEP:     238     ITERATIONS:      13

 -----------------------------------------------------------------------------------

   CUMULATIVE VOLUMES               L**3   RATES FOR THIS TIME STEP           L**3/T
   ------------------                      ------------------------

                                     IN                                         IN
                                     --                                         --
        PRECIPITATION =        1.8252D+07          PRECIPITATION =         284301.98
           STREAMFLOW =                               STREAMFLOW =                  
     GW BOUNDARY FLOW =                         GW BOUNDARY FLOW =                  


                                    OUT                                        OUT
                                    ---                                        ---
   EVAPOTRANSPIRATION =        1.2404D+07     EVAPOTRANSPIRATION =         145741.84
           STREAMFLOW =        5964523.08             STREAMFLOW =          17760.21
     GW BOUNDARY FLOW =         154873.65       GW BOUNDARY FLOW =            648.35

   INFLOWS - OUTFLOWS =        -271774.68     INFLOWS - OUTFLOWS =         120151.58
             --------                                   --------

 TOTAL STORAGE CHANGE =        -266109.62         STORAGE CHANGE =         120146.57
       --------------                             --------------
         LAND SURFACE =         121447.14           LAND SURFACE =          -8077.84
            SOIL ZONE =        1397836.41              SOIL ZONE =         145800.91
     UNSATURATED ZONE =        -924743.63       UNSATURATED ZONE =         -10414.56
       SATURATED ZONE =        -860649.53         SATURATED ZONE =          -7161.95

 OVERALL BUDGET ERROR =          -5665.06           BUDGET ERROR =              5.01


  PERCENT DISCREPANCY =             -0.03    PERCENT DISCREPANCY =              0.00



1
 SUMMARY VOLUMETRIC BUDGET FOR GSFLOW 
 DATE: 06 02 1981              CUMULATIVE TIME STEP:     245
 MODFLOW STRESS PERIOD      2     CURRENT TIME STEP:     245     ITERATIONS:      12

 -----------------------------------------------------------------------------------

   CUMULATIVE VOLUMES               L**3   RATES FOR THIS TIME STEP           L**3/T
   ------------------                      ------------------------

                                     IN                                         IN
                                     --                                         --
        PRECIPITATION =        1.8318D+07          PRECIPITATION =          50867.39
           STREAMFLOW =                               STREAMFLOW =                  
     GW BOUNDARY FLOW =                         GW BOUNDARY FLOW =                  


                                    OUT                                        OUT
                                    ---                                        ---
   EVAPOTRANSPIRATION =        1.3202D+07     EVAPOTRANSPIRATION =          74856.08
           STREAMFLOW =        6030311.40             STREAMFLOW =           7553.68
     GW BOUNDARY FLOW =         159408.17       GW BOUNDARY FLOW =            647.39

   INFLOWS - OUTFLOWS =       -1073089.80     INFLOWS - OUTFLOWS =         -32189.76
             --------                                   --------

 TOTAL STORAGE CHANGE =       -1067453.30         STORAGE CHANGE =         -32194.33
       --------------                             --------------
         LAND SURFACE =          76065.81           LAND SURFACE =          28539.47
            SOIL ZONE =         783668.66              SOIL ZONE =         -39356.24
     UNSATURATED ZONE =       -1007773.76       UNSATURATED ZONE =         -12520.58
       SATURATED ZONE =        -919414.00         SATURATED ZONE =          -8856.99

 OVERALL BUDGET ERROR =          -5636.50           BUDGET ERROR =              4.57


  PERCENT DISCREPANCY =             -0.03    PERCENT DISCREPANCY =              0.01



1
 SUMMARY VOLUMETRIC BUDGET FOR GSFLOW 
 DATE: 06 09 1981              CUMULATIVE TIME STEP:     252
 MODFLOW STRESS PERIOD      2     CURRENT TIME STEP:     252     ITERATIONS:      15

 -----------------------------------------------------------------------------------

   CUMULATIVE VOLUMES               L**3   RATES FOR THIS TIME STEP           L**3/T
   ------------------                      ------------------------

                                     IN                                         IN
                                     --                                         --
        PRECIPITATION =        1.8318D+07          PRECIPITATION =                  
           STREAMFLOW =                               STREAMFLOW =                  
     GW BOUNDARY FLOW =                         GW BOUNDARY FLOW =                  


                                    OUT                                        OUT
                                    ---                                        ---
   EVAPOTRANSPIRATION =        1.3672D+07     EVAPOTRANSPIRATION =          50404.69
           STREAMFLOW =        6077004.68             STREAMFLOW =           6294.59
     GW BOUNDARY FLOW =         163937.96       GW BOUNDARY FLOW =            646.95

   INFLOWS - OUTFLOWS =       -1594222.07     INFLOWS - OUTFLOWS =         -57346.24
             --------                                   --------

 TOTAL STORAGE CHANGE =       -1588573.80         STORAGE CHANGE =         -57348.38
       --------------                             --------------
         LAND SURFACE =          13609.96           LAND SURFACE =          -3000.14
            SOIL ZONE =         478377.29              SOIL ZONE =         -32324.72
     UNSATURATED ZONE =       -1095121.04       UNSATURATED ZONE =         -12376.23
       SATURATED ZONE =        -985440.01         SATURATED ZONE =          -9647.29

 OVERALL BUDGET ERROR =          -5648.27           BUDGET ERROR =              2.14


  PERCENT DISCREPANCY =             -0.03    PERCENT DISCREPANCY =              0.00



1
 SUMMARY VOLUMETRIC BUDGET FOR GSFLOW 
 DATE: 06 16 1981              CUMULATIVE TIME STEP:     259
 MODFLOW STRESS PERIOD      2     CURRENT TIME STEP:     259     ITERATIONS:      13

 -----------------------------------------------------------------------------------

   CUMULATIVE VOLUMES               L**3   RATES FOR THIS TIME STEP           L**3/T
   ------------------                      ------------------------

                                     IN                                         IN
                                     --                                         --
        PRECIPITATION =        1.8318D+07          PRECIPITATION =                  
           STREAMFLOW =                               STREAMFLOW =                  
     GW BOUNDARY FLOW =                         GW BOUNDARY FLOW =                  


                                    OUT                                        OUT
                                    ---                                        ---
   EVAPOTRANSPIRATION =        1.3862D+07     EVAPOTRANSPIRATION =          44321.30
           STREAMFLOW =        6119806.26             STREAMFLOW =           6049.31
     GW BOUNDARY FLOW =         168465.71       GW BOUNDARY FLOW =            646.74

   INFLOWS - OUTFLOWS =       -1832394.00     INFLOWS - OUTFLOWS =         -51017.35
             --------                                   --------

 TOTAL STORAGE CHANGE =       -1826763.09         STORAGE CHANGE =         -51020.00
       --------------                             --------------
         LAND SURFACE =           6267.42           LAND SURFACE =          -1304.38
            SOIL ZONE =         400398.77              SOIL ZONE =         -28007.71
     UNSATURATED ZONE =       -1179026.04       UNSATURATED ZONE =         -11906.09
       SATURATED ZONE =       -1054403.23         SATURATED ZONE =          -9801.82

 OVERALL BUDGET ERROR =          -5630.92           BUDGET ERROR =              2.65


  PERCENT DISCREPANCY =             -0.03    PERCENT DISCREPANCY =              0.01



1
 SUMMARY VOLUMETRIC BUDGET FOR GSFLOW 
 DATE: 06 23 1981              CUMULATIVE TIME STEP:     266
 MODFLOW STRESS PERIOD      2     CURRENT TIME STEP:     266     ITERATIONS:      11

 -----------------------------------------------------------------------------------

   CUMULATIVE VOLUMES               L**3   RATES FOR THIS TIME STEP           L**3/T
   ------------------                      ------------------------

                                     IN                                         IN
                                     --                                         --
        PRECIPITATION =        1.8318D+07          PRECIPITATION =                  
           STREAMFLOW =                               STREAMFLOW =                  
     GW BOUNDARY FLOW =                         GW BOUNDARY FLOW =                  


                                    OUT                                        OUT
                                    ---                                        ---
   EVAPOTRANSPIRATION =        1.4139D+07     EVAPOTRANSPIRATION =          30913.72
[...]
             --------                                   --------

 TOTAL STORAGE CHANGE =       -9367038.36         STORAGE CHANGE =         -48673.27
       --------------                             --------------
         LAND SURFACE =         152692.44           LAND SURFACE =          -6818.24
            SOIL ZONE =         234144.78              SOIL ZONE =         -21292.10
     UNSATURATED ZONE =        5993469.22       UNSATURATED ZONE =         -26185.84
       SATURATED ZONE =       -1.5747D+07         SATURATED ZONE =           5622.91

 OVERALL BUDGET ERROR =         -92733.02           BUDGET ERROR =             35.55


  PERCENT DISCREPANCY =             -0.02    PERCENT DISCREPANCY =              0.07



1
 SUMMARY VOLUMETRIC BUDGET FOR GSFLOW 
 DATE: 07 30 1996              CUMULATIVE TIME STEP:    5782
 MODFLOW STRESS PERIOD      2     CURRENT TIME STEP:    5782     ITERATIONS:      14

 -----------------------------------------------------------------------------------

   CUMULATIVE VOLUMES               L**3   RATES FOR THIS TIME STEP           L**3/T
   ------------------                      ------------------------

                                     IN                                         IN
                                     --                                         --
        PRECIPITATION =        4.6511D+08          PRECIPITATION =                  
           STREAMFLOW =                               STREAMFLOW =                  
     GW BOUNDARY FLOW =                         GW BOUNDARY FLOW =                  


                                    OUT                                        OUT
                                    ---                                        ---
   EVAPOTRANSPIRATION =        2.9619D+08     EVAPOTRANSPIRATION =          31104.79
           STREAMFLOW =        1.7491D+08             STREAMFLOW =           6542.82
     GW BOUNDARY FLOW =        3741072.54       GW BOUNDARY FLOW =            650.66

   INFLOWS - OUTFLOWS =       -9723599.87     INFLOWS - OUTFLOWS =         -38298.27
             --------                                   --------

 TOTAL STORAGE CHANGE =       -9630992.92         STORAGE CHANGE =         -38324.02
       --------------                             --------------
         LAND SURFACE =         112099.97           LAND SURFACE =          -4929.06
            SOIL ZONE =         153535.04              SOIL ZONE =         -13118.58
     UNSATURATED ZONE =        5816555.39       UNSATURATED ZONE =         -24836.93
       SATURATED ZONE =       -1.5713D+07         SATURATED ZONE =           4560.55

 OVERALL BUDGET ERROR =         -92606.96           BUDGET ERROR =             25.76


  PERCENT DISCREPANCY =             -0.02    PERCENT DISCREPANCY =              0.07



1
 SUMMARY VOLUMETRIC BUDGET FOR GSFLOW 
 DATE: 08 06 1996              CUMULATIVE TIME STEP:    5789
 MODFLOW STRESS PERIOD      2     CURRENT TIME STEP:    5789     ITERATIONS:      13

 -----------------------------------------------------------------------------------

   CUMULATIVE VOLUMES               L**3   RATES FOR THIS TIME STEP           L**3/T
   ------------------                      ------------------------

                                     IN                                         IN
                                     --                                         --
        PRECIPITATION =        4.6511D+08          PRECIPITATION =                  
           STREAMFLOW =                               STREAMFLOW =                  
     GW BOUNDARY FLOW =                         GW BOUNDARY FLOW =                  


                                    OUT                                        OUT
                                    ---                                        ---
   EVAPOTRANSPIRATION =        2.9634D+08     EVAPOTRANSPIRATION =          19256.59
           STREAMFLOW =        1.7495D+08             STREAMFLOW =           6343.52
     GW BOUNDARY FLOW =        3745626.93       GW BOUNDARY FLOW =            650.58

   INFLOWS - OUTFLOWS =       -9926105.84     INFLOWS - OUTFLOWS =         -26250.69
             --------                                   --------

 TOTAL STORAGE CHANGE =       -9833611.02         STORAGE CHANGE =         -26276.76
       --------------                             --------------
         LAND SURFACE =          85235.59           LAND SURFACE =          -3353.13
            SOIL ZONE =         118520.84              SOIL ZONE =          -2927.80
     UNSATURATED ZONE =        5647881.62       UNSATURATED ZONE =         -23742.50
       SATURATED ZONE =       -1.5685D+07         SATURATED ZONE =           3746.67

 OVERALL BUDGET ERROR =         -92494.82           BUDGET ERROR =             26.07


  PERCENT DISCREPANCY =             -0.02    PERCENT DISCREPANCY =              0.10



1
 SUMMARY VOLUMETRIC BUDGET FOR GSFLOW 
 DATE: 08 13 1996              CUMULATIVE TIME STEP:    5796
 MODFLOW STRESS PERIOD      2     CURRENT TIME STEP:    5796     ITERATIONS:      18

 -----------------------------------------------------------------------------------

   CUMULATIVE VOLUMES               L**3   RATES FOR THIS TIME STEP           L**3/T
   ------------------                      ------------------------

                                     IN                                         IN
                                     --                                         --
        PRECIPITATION =        4.6531D+08          PRECIPITATION =          54456.73
           STREAMFLOW =                               STREAMFLOW =                  
     GW BOUNDARY FLOW =                         GW BOUNDARY FLOW =                  


                                    OUT                                        OUT
                                    ---                                        ---
   EVAPOTRANSPIRATION =        2.9652D+08     EVAPOTRANSPIRATION =          36509.14
           STREAMFLOW =        1.7500D+08             STREAMFLOW =           7536.15
     GW BOUNDARY FLOW =        3750180.56       GW BOUNDARY FLOW =            650.53

   INFLOWS - OUTFLOWS =       -9957078.76     INFLOWS - OUTFLOWS =           9760.91
             --------                                   --------

 TOTAL STORAGE CHANGE =       -9864738.29         STORAGE CHANGE =           9747.87
       --------------                             --------------
         LAND SURFACE =          92673.80           LAND SURFACE =          -3493.45
            SOIL ZONE =         218473.18              SOIL ZONE =          32833.69
     UNSATURATED ZONE =        5484722.25       UNSATURATED ZONE =         -23408.94
       SATURATED ZONE =       -1.5661D+07         SATURATED ZONE =           3816.56

 OVERALL BUDGET ERROR =         -92340.47           BUDGET ERROR =             13.04


  PERCENT DISCREPANCY =             -0.02    PERCENT DISCREPANCY =              0.02



1
 SUMMARY VOLUMETRIC BUDGET FOR GSFLOW 
 DATE: 08 20 1996              CUMULATIVE TIME STEP:    5803
 MODFLOW STRESS PERIOD      2     CURRENT TIME STEP:    5803     ITERATIONS:      18

 -----------------------------------------------------------------------------------

   CUMULATIVE VOLUMES               L**3   RATES FOR THIS TIME STEP           L**3/T
   ------------------                      ------------------------

                                     IN                                         IN
                                     --                                         --
        PRECIPITATION =        4.6531D+08          PRECIPITATION =                  
           STREAMFLOW =                               STREAMFLOW =                  
     GW BOUNDARY FLOW =                         GW BOUNDARY FLOW =                  


                                    OUT                                        OUT
                                    ---                                        ---
   EVAPOTRANSPIRATION =        2.9672D+08     EVAPOTRANSPIRATION =          18744.71
           STREAMFLOW =        1.7504D+08             STREAMFLOW =           6151.58
     GW BOUNDARY FLOW =        3754732.65       GW BOUNDARY FLOW =            650.12

   INFLOWS - OUTFLOWS =       -1.0207D+07     INFLOWS - OUTFLOWS =         -25546.42
             --------                                   --------

 TOTAL STORAGE CHANGE =       -1.0115D+07         STORAGE CHANGE =         -25557.61
       --------------                             --------------
         LAND SURFACE =          40251.08           LAND SURFACE =          -2042.85
            SOIL ZONE =         157768.73              SOIL ZONE =          -4036.80
     UNSATURATED ZONE =        5324751.04       UNSATURATED ZONE =         -22458.39
       SATURATED ZONE =       -1.5638D+07         SATURATED ZONE =           2980.43

 OVERALL BUDGET ERROR =         -92268.98           BUDGET ERROR =             11.19


  PERCENT DISCREPANCY =             -0.02    PERCENT DISCREPANCY =              0.04



1
 SUMMARY VOLUMETRIC BUDGET FOR GSFLOW 
 DATE: 08 27 1996              CUMULATIVE TIME STEP:    5810
 MODFLOW STRESS PERIOD      2     CURRENT TIME STEP:    5810     ITERATIONS:      18

 -----------------------------------------------------------------------------------

   CUMULATIVE VOLUMES               L**3   RATES FOR THIS TIME STEP           L**3/T
   ------------------                      ------------------------

                                     IN                                         IN
                                     --                                         --
        PRECIPITATION =        4.6531D+08          PRECIPITATION =                  
           STREAMFLOW =                               STREAMFLOW =                  
     GW BOUNDARY FLOW =                         GW BOUNDARY FLOW =                  


                                    OUT                                        OUT
                                    ---                                        ---
   EVAPOTRANSPIRATION =        2.9686D+08     EVAPOTRANSPIRATION =          15286.01
           STREAMFLOW =        1.7509D+08             STREAMFLOW =           5999.69
     GW BOUNDARY FLOW =        3759281.98       GW BOUNDARY FLOW =            649.74

   INFLOWS - OUTFLOWS =       -1.0393D+07     INFLOWS - OUTFLOWS =         -21935.44
             --------                                   --------

 TOTAL STORAGE CHANGE =       -1.0301D+07         STORAGE CHANGE =         -21946.63
       --------------                             --------------
         LAND SURFACE =          26150.57           LAND SURFACE =          -1370.47
            SOIL ZONE =         120999.61              SOIL ZONE =          -1333.37
     UNSATURATED ZONE =        5172681.80       UNSATURATED ZONE =         -21146.99
       SATURATED ZONE =       -1.5621D+07         SATURATED ZONE =           1904.20

 OVERALL BUDGET ERROR =         -92195.38           BUDGET ERROR =             11.19


  PERCENT DISCREPANCY =             -0.02    PERCENT DISCREPANCY =              0.05



1
 SUMMARY VOLUMETRIC BUDGET FOR GSFLOW 
 DATE: 09 03 1996              CUMULATIVE TIME STEP:    5817
 MODFLOW STRESS PERIOD      2     CURRENT TIME STEP:    5817     ITERATIONS:      18

 -----------------------------------------------------------------------------------

   CUMULATIVE VOLUMES               L**3   RATES FOR THIS TIME STEP           L**3/T
   ------------------                      ------------------------

                                     IN                                         IN
                                     --                                         --
        PRECIPITATION =        4.6531D+08          PRECIPITATION =                  
           STREAMFLOW =                               STREAMFLOW =                  
     GW BOUNDARY FLOW =                         GW BOUNDARY FLOW =                  


                                    OUT                                        OUT
                                    ---                                        ---
   EVAPOTRANSPIRATION =        2.9697D+08     EVAPOTRANSPIRATION =          13666.14
           STREAMFLOW =        1.7513D+08             STREAMFLOW =           5896.98
     GW BOUNDARY FLOW =        3763828.55       GW BOUNDARY FLOW =            649.35

   INFLOWS - OUTFLOWS =       -1.0548D+07     INFLOWS - OUTFLOWS =         -20212.47
             --------                                   --------

 TOTAL STORAGE CHANGE =       -1.0456D+07         STORAGE CHANGE =         -20223.95
       --------------                             --------------
         LAND SURFACE =          17057.93           LAND SURFACE =          -1080.58
            SOIL ZONE =         108866.14              SOIL ZONE =           -121.23
     UNSATURATED ZONE =        5030401.48       UNSATURATED ZONE =         -20084.99
       SATURATED ZONE =       -1.5613D+07         SATURATED ZONE =           1062.86

 OVERALL BUDGET ERROR =         -92115.39           BUDGET ERROR =             11.48


  PERCENT DISCREPANCY =             -0.02    PERCENT DISCREPANCY =              0.06



1
 SUMMARY VOLUMETRIC BUDGET FOR GSFLOW 
 DATE: 09 10 1996              CUMULATIVE TIME STEP:    5824
 MODFLOW STRESS PERIOD      2     CURRENT TIME STEP:    5824     ITERATIONS:      18

 -----------------------------------------------------------------------------------

   CUMULATIVE VOLUMES               L**3   RATES FOR THIS TIME STEP           L**3/T
   ------------------                      ------------------------

                                     IN                                         IN
                                     --                                         --
        PRECIPITATION =        4.6531D+08          PRECIPITATION =                  
           STREAMFLOW =                               STREAMFLOW =                  
     GW BOUNDARY FLOW =                         GW BOUNDARY FLOW =                  


                                    OUT                                        OUT
                                    ---                                        ---
   EVAPOTRANSPIRATION =        2.9705D+08     EVAPOTRANSPIRATION =          13468.04
           STREAMFLOW =        1.7517D+08             STREAMFLOW =           5806.00
     GW BOUNDARY FLOW =        3768372.47       GW BOUNDARY FLOW =            648.97

   INFLOWS - OUTFLOWS =       -1.0677D+07     INFLOWS - OUTFLOWS =         -19923.02
             --------                                   --------

 TOTAL STORAGE CHANGE =       -1.0585D+07         STORAGE CHANGE =         -19934.57
       --------------                             --------------
         LAND SURFACE =          10644.28           LAND SURFACE =           -976.08
            SOIL ZONE =         118453.38              SOIL ZONE =           -144.82
     UNSATURATED ZONE =        4891206.63       UNSATURATED ZONE =         -19701.68
       SATURATED ZONE =       -1.5606D+07         SATURATED ZONE =            888.00

 OVERALL BUDGET ERROR =         -92030.27           BUDGET ERROR =             11.56


  PERCENT DISCREPANCY =             -0.02    PERCENT DISCREPANCY =              0.06



1
 SUMMARY VOLUMETRIC BUDGET FOR GSFLOW 
 DATE: 09 17 1996              CUMULATIVE TIME STEP:    5831
 MODFLOW STRESS PERIOD      2     CURRENT TIME STEP:    5831     ITERATIONS:      18

 -----------------------------------------------------------------------------------

   CUMULATIVE VOLUMES               L**3   RATES FOR THIS TIME STEP           L**3/T
   ------------------                      ------------------------

                                     IN                                         IN
                                     --                                         --
        PRECIPITATION =        4.6637D+08          PRECIPITATION =                  
           STREAMFLOW =                               STREAMFLOW =                  
     GW BOUNDARY FLOW =                         GW BOUNDARY FLOW =                  


                                    OUT                                        OUT
                                    ---                                        ---
   EVAPOTRANSPIRATION =        2.9726D+08     EVAPOTRANSPIRATION =          74571.48
           STREAMFLOW =        1.7523D+08             STREAMFLOW =           9799.00
     GW BOUNDARY FLOW =        3772915.79       GW BOUNDARY FLOW =            649.37

   INFLOWS - OUTFLOWS =       -9895241.98     INFLOWS - OUTFLOWS =         -85019.86
             --------                                   --------

 TOTAL STORAGE CHANGE =       -9803298.32         STORAGE CHANGE =         -85037.55
       --------------                             --------------
         LAND SURFACE =           6180.91           LAND SURFACE =         -34896.28
            SOIL ZONE =        1033658.41              SOIL ZONE =         -31511.78
     UNSATURATED ZONE =        4756407.82       UNSATURATED ZONE =         -19154.83
       SATURATED ZONE =       -1.5600D+07         SATURATED ZONE =            525.35

 OVERALL BUDGET ERROR =         -91943.66           BUDGET ERROR =             17.69


  PERCENT DISCREPANCY =             -0.02    PERCENT DISCREPANCY =              0.02



1
 SUMMARY VOLUMETRIC BUDGET FOR GSFLOW 
 DATE: 09 24 1996              CUMULATIVE TIME STEP:    5838
 MODFLOW STRESS PERIOD      2     CURRENT TIME STEP:    5838     ITERATIONS:      18

 -----------------------------------------------------------------------------------

   CUMULATIVE VOLUMES               L**3   RATES FOR THIS TIME STEP           L**3/T
   ------------------                      ------------------------

                                     IN                                         IN
                                     --                                         --
        PRECIPITATION =        4.6637D+08          PRECIPITATION =                  
           STREAMFLOW =                               STREAMFLOW =                  
     GW BOUNDARY FLOW =                         GW BOUNDARY FLOW =                  


                                    OUT                                        OUT
                                    ---                                        ---
   EVAPOTRANSPIRATION =        2.9779D+08     EVAPOTRANSPIRATION =          50869.44
           STREAMFLOW =        1.7528D+08             STREAMFLOW =           6133.01
     GW BOUNDARY FLOW =        3777457.40       GW BOUNDARY FLOW =            648.47

   INFLOWS - OUTFLOWS =       -1.0484D+07     INFLOWS - OUTFLOWS =         -57650.91
             --------                                   --------

 TOTAL STORAGE CHANGE =       -1.0392D+07         STORAGE CHANGE =         -57663.10
       --------------                             --------------
         LAND SURFACE =           2675.39           LAND SURFACE =           -481.80
            SOIL ZONE =         578401.03              SOIL ZONE =         -38733.89
     UNSATURATED ZONE =        4625235.62       UNSATURATED ZONE =         -18419.43
       SATURATED ZONE =       -1.5598D+07         SATURATED ZONE =            -27.98

 OVERALL BUDGET ERROR =         -91865.62           BUDGET ERROR =             12.19


  PERCENT DISCREPANCY =             -0.02    PERCENT DISCREPANCY =              0.02



