1
 SUMMARY VOLUMETRIC BUDGET FOR GSFLOW 
 DATE: 10 07 1980              CUMULATIVE TIME STEP:       7
 MODFLOW STRESS PERIOD      2     CURRENT TIME STEP:       7     ITERATIONS:       6

 -----------------------------------------------------------------------------------

   CUMULATIVE VOLUMES               L**3   RATES FOR THIS TIME STEP           L**3/T
   ------------------                      ------------------------

                                     IN                                         IN
                                     --                                         --
        PRECIPITATION =                            PRECIPITATION =                  
           STREAMFLOW =                               STREAMFLOW =                  
     GW BOUNDARY FLOW =                         GW BOUNDARY FLOW =                  


                                    OUT                                        OUT
                                    ---                                        ---
   EVAPOTRANSPIRATION =          66602.83     EVAPOTRANSPIRATION =           9277.83
           STREAMFLOW =          42957.63             STREAMFLOW =           6065.77
     GW BOUNDARY FLOW =           4541.44       GW BOUNDARY FLOW =            648.70

   INFLOWS - OUTFLOWS =        -114101.90     INFLOWS - OUTFLOWS =         -15992.30
             --------                                   --------

 TOTAL STORAGE CHANGE =        -113606.50         STORAGE CHANGE =         -15918.90
       --------------                             --------------
         LAND SURFACE =                             LAND SURFACE =                  
            SOIL ZONE =          43953.83              SOIL ZONE =           6423.68
     UNSATURATED ZONE =        -144777.37       UNSATURATED ZONE =         -20360.11
       SATURATED ZONE =         -12782.96         SATURATED ZONE =          -1982.46

 OVERALL BUDGET ERROR =           -495.39           BUDGET ERROR =            -73.41


  PERCENT DISCREPANCY =             -0.44    PERCENT DISCREPANCY =             -0.46



1
 SUMMARY VOLUMETRIC BUDGET FOR GSFLOW 
 DATE: 10 14 1980              CUMULATIVE TIME STEP:      14
 MODFLOW STRESS PERIOD      2     CURRENT TIME STEP:      14     ITERATIONS:       6

 -----------------------------------------------------------------------------------

   CUMULATIVE VOLUMES               L**3   RATES FOR THIS TIME STEP           L**3/T
   ------------------                      ------------------------

                                     IN                                         IN
                                     --                                         --
        PRECIPITATION =         650780.39          PRECIPITATION =         164754.68
           STREAMFLOW =                               STREAMFLOW =                  
     GW BOUNDARY FLOW =                         GW BOUNDARY FLOW =                  


                                    OUT                                        OUT
                                    ---                                        ---
   EVAPOTRANSPIRATION =         162771.87     EVAPOTRANSPIRATION =          11477.33
           STREAMFLOW =          94479.61             STREAMFLOW =           7724.45
     GW BOUNDARY FLOW =           9082.96       GW BOUNDARY FLOW =            648.94

   INFLOWS - OUTFLOWS =         384445.95     INFLOWS - OUTFLOWS =         144903.96
             --------                                   --------

 TOTAL STORAGE CHANGE =         385498.98         STORAGE CHANGE =         144981.84
       --------------                             --------------
         LAND SURFACE =         183752.15           LAND SURFACE =         130549.81
            SOIL ZONE =         513682.97              SOIL ZONE =          36450.59
     UNSATURATED ZONE =        -284494.52       UNSATURATED ZONE =         -19623.95
       SATURATED ZONE =         -27441.62         SATURATED ZONE =          -2394.61

 OVERALL BUDGET ERROR =          -1053.02           BUDGET ERROR =            -77.88


  PERCENT DISCREPANCY =             -0.16    PERCENT DISCREPANCY =             -0.05



1
 SUMMARY VOLUMETRIC BUDGET FOR GSFLOW 
 DATE: 10 21 1980              CUMULATIVE TIME STEP:      21
 MODFLOW STRESS PERIOD      2     CURRENT TIME STEP:      21     ITERATIONS:       6

 -----------------------------------------------------------------------------------

   CUMULATIVE VOLUMES               L**3   RATES FOR THIS TIME STEP           L**3/T
   ------------------                      ------------------------

                                     IN                                         IN
                                     --                                         --
        PRECIPITATION =         733156.23          PRECIPITATION =                  
           STREAMFLOW =                               STREAMFLOW =                  
     GW BOUNDARY FLOW =                         GW BOUNDARY FLOW =                  


                                    OUT                                        OUT
                                    ---                                        ---
   EVAPOTRANSPIRATION =         433041.17     EVAPOTRANSPIRATION =          44098.68
           STREAMFLOW =         145893.66             STREAMFLOW =           6875.31
     GW BOUNDARY FLOW =          13624.72       GW BOUNDARY FLOW =            648.73

   INFLOWS - OUTFLOWS =         140596.67     INFLOWS - OUTFLOWS =         -51622.73
             --------                                   --------

 TOTAL STORAGE CHANGE =         142183.59         STORAGE CHANGE =         -51542.44
       --------------                             --------------
         LAND SURFACE =                             LAND SURFACE =                  
            SOIL ZONE =         607256.98              SOIL ZONE =         -29689.46
     UNSATURATED ZONE =        -418688.47       UNSATURATED ZONE =         -18823.80
       SATURATED ZONE =         -46384.92         SATURATED ZONE =          -3029.18

 OVERALL BUDGET ERROR =          -1586.91           BUDGET ERROR =            -80.29


  PERCENT DISCREPANCY =             -0.22    PERCENT DISCREPANCY =             -0.16



1
 SUMMARY VOLUMETRIC BUDGET FOR GSFLOW 
 DATE: 10 28 1980              CUMULATIVE TIME STEP:      28
 MODFLOW STRESS PERIOD      2     CURRENT TIME STEP:      28     ITERATIONS:       6

 -----------------------------------------------------------------------------------

   CUMULATIVE VOLUMES               L**3   RATES FOR THIS TIME STEP           L**3/T
   ------------------                      ------------------------

                                     IN                                         IN
                                     --                                         --
        PRECIPITATION =        1070899.96          PRECIPITATION =                  
           STREAMFLOW =                               STREAMFLOW =                  
     GW BOUNDARY FLOW =                         GW BOUNDARY FLOW =                  


                                    OUT                                        OUT
                                    ---                                        ---
   EVAPOTRANSPIRATION =         623854.69     EVAPOTRANSPIRATION =          24681.28
           STREAMFLOW =         199268.74             STREAMFLOW =           7738.51
     GW BOUNDARY FLOW =          18165.84       GW BOUNDARY FLOW =            648.77

   INFLOWS - OUTFLOWS =         229610.69     INFLOWS - OUTFLOWS =         -33068.57
             --------                                   --------

 TOTAL STORAGE CHANGE =         231786.76         STORAGE CHANGE =         -32980.96
       --------------                             --------------
         LAND SURFACE =          20573.21           LAND SURFACE =         -29874.97
            SOIL ZONE =         827708.19              SOIL ZONE =          18416.31
     UNSATURATED ZONE =        -547427.98       UNSATURATED ZONE =         -18025.96
       SATURATED ZONE =         -69066.66         SATURATED ZONE =          -3496.34

 OVERALL BUDGET ERROR =          -2176.07           BUDGET ERROR =            -87.61


  PERCENT DISCREPANCY =             -0.20    PERCENT DISCREPANCY =             -0.27



1
 SUMMARY VOLUMETRIC BUDGET FOR GSFLOW 
 DATE: 11 04 1980              CUMULATIVE TIME STEP:      35
 MODFLOW STRESS PERIOD      2     CURRENT TIME STEP:      35     ITERATIONS:      11

 -----------------------------------------------------------------------------------

   CUMULATIVE VOLUMES               L**3   RATES FOR THIS TIME STEP           L**3/T
   ------------------                      ------------------------

                                     IN                                         IN
                                     --                                         --
        PRECIPITATION =        1070899.96          PRECIPITATION =                  
           STREAMFLOW =                               STREAMFLOW =                  
     GW BOUNDARY FLOW =                         GW BOUNDARY FLOW =                  


                                    OUT                                        OUT
                                    ---                                        ---
   EVAPOTRANSPIRATION =         962151.94     EVAPOTRANSPIRATION =          43314.36
           STREAMFLOW =         250169.84             STREAMFLOW =           6826.58
     GW BOUNDARY FLOW =          22706.59       GW BOUNDARY FLOW =            648.61

   INFLOWS - OUTFLOWS =        -164128.42     INFLOWS - OUTFLOWS =         -50789.55
             --------                                   --------

 TOTAL STORAGE CHANGE =        -161485.64         STORAGE CHANGE =         -50738.13
       --------------                             --------------
         LAND SURFACE =                             LAND SURFACE =                  
            SOIL ZONE =         605909.71              SOIL ZONE =         -29187.26
     UNSATURATED ZONE =        -670901.53       UNSATURATED ZONE =         -17351.59
       SATURATED ZONE =         -96493.81         SATURATED ZONE =          -4199.28

 OVERALL BUDGET ERROR =          -2642.78           BUDGET ERROR =            -51.42


  PERCENT DISCREPANCY =             -0.21    PERCENT DISCREPANCY =             -0.10



1
 SUMMARY VOLUMETRIC BUDGET FOR GSFLOW 
 DATE: 11 11 1980              CUMULATIVE TIME STEP:      42
 MODFLOW STRESS PERIOD      2     CURRENT TIME STEP:      42     ITERATIONS:       7

 -----------------------------------------------------------------------------------

   CUMULATIVE VOLUMES               L**3   RATES FOR THIS TIME STEP           L**3/T
   ------------------                      ------------------------

                                     IN                                         IN
                                     --                                         --
        PRECIPITATION =        1573759.34          PRECIPITATION =         255182.10
           STREAMFLOW =                               STREAMFLOW =                  
     GW BOUNDARY FLOW =                         GW BOUNDARY FLOW =                  


                                    OUT                                        OUT
                                    ---                                        ---
   EVAPOTRANSPIRATION =        1194031.34     EVAPOTRANSPIRATION =          17062.48
           STREAMFLOW =         305345.95             STREAMFLOW =          10510.93
     GW BOUNDARY FLOW =          27247.17       GW BOUNDARY FLOW =            648.82

   INFLOWS - OUTFLOWS =          47134.87     INFLOWS - OUTFLOWS =         226959.86
             --------                                   --------

 TOTAL STORAGE CHANGE =          50316.51         STORAGE CHANGE =         227031.23
       --------------                             --------------
         LAND SURFACE =          76836.75           LAND SURFACE =          76836.75
            SOIL ZONE =         889599.05              SOIL ZONE =         170950.01
     UNSATURATED ZONE =        -789535.45       UNSATURATED ZONE =         -16595.71
       SATURATED ZONE =        -126583.83         SATURATED ZONE =          -4159.82

 OVERALL BUDGET ERROR =          -3181.64           BUDGET ERROR =            -71.36


  PERCENT DISCREPANCY =             -0.20    PERCENT DISCREPANCY =             -0.03



1
 SUMMARY VOLUMETRIC BUDGET FOR GSFLOW 
 DATE: 11 18 1980              CUMULATIVE TIME STEP:      49
 MODFLOW STRESS PERIOD      2     CURRENT TIME STEP:      49     ITERATIONS:       6

 -----------------------------------------------------------------------------------

   CUMULATIVE VOLUMES               L**3   RATES FOR THIS TIME STEP           L**3/T
   ------------------                      ------------------------

                                     IN                                         IN
                                     --                                         --
        PRECIPITATION =        1573759.34          PRECIPITATION =                  
           STREAMFLOW =                               STREAMFLOW =                  
     GW BOUNDARY FLOW =                         GW BOUNDARY FLOW =                  


                                    OUT                                        OUT
                                    ---                                        ---
   EVAPOTRANSPIRATION =        1291031.82     EVAPOTRANSPIRATION =          23195.36
           STREAMFLOW =         365842.43             STREAMFLOW =           8949.40
     GW BOUNDARY FLOW =          31788.77       GW BOUNDARY FLOW =            648.81

   INFLOWS - OUTFLOWS =        -114903.68     INFLOWS - OUTFLOWS =         -32793.57
             --------                                   --------

 TOTAL STORAGE CHANGE =        -111166.26         STORAGE CHANGE =         -32694.16
       --------------                             --------------
         LAND SURFACE =           5398.38           LAND SURFACE =          -7586.23
            SOIL ZONE =         946640.27              SOIL ZONE =          -4261.26
     UNSATURATED ZONE =        -903515.41       UNSATURATED ZONE =         -16027.49
       SATURATED ZONE =        -159689.50         SATURATED ZONE =          -4819.18

 OVERALL BUDGET ERROR =          -3737.42           BUDGET ERROR =            -99.41


  PERCENT DISCREPANCY =             -0.22    PERCENT DISCREPANCY =             -0.30



1
 SUMMARY VOLUMETRIC BUDGET FOR GSFLOW 
 DATE: 11 25 1980              CUMULATIVE TIME STEP:      56
 MODFLOW STRESS PERIOD      2     CURRENT TIME STEP:      56     ITERATIONS:       7

 -----------------------------------------------------------------------------------

   CUMULATIVE VOLUMES               L**3   RATES FOR THIS TIME STEP           L**3/T
   ------------------                      ------------------------

                                     IN                                         IN
                                     --                                         --
        PRECIPITATION =        1648813.76          PRECIPITATION =                  
           STREAMFLOW =                               STREAMFLOW =                  
     GW BOUNDARY FLOW =                         GW BOUNDARY FLOW =                  


                                    OUT                                        OUT
                                    ---                                        ---
   EVAPOTRANSPIRATION =        1380093.78     EVAPOTRANSPIRATION =           9280.00
           STREAMFLOW =         428927.11             STREAMFLOW =           9140.11
     GW BOUNDARY FLOW =          36330.52       GW BOUNDARY FLOW =            648.83

   INFLOWS - OUTFLOWS =        -196537.65     INFLOWS - OUTFLOWS =         -19068.93
             --------                                   --------

 TOTAL STORAGE CHANGE =        -192121.38         STORAGE CHANGE =         -18991.82
       --------------                             --------------
         LAND SURFACE =          53187.59           LAND SURFACE =          -9260.11
            SOIL ZONE =         963894.26              SOIL ZONE =          11115.27
     UNSATURATED ZONE =       -1013218.03       UNSATURATED ZONE =         -15401.85
       SATURATED ZONE =        -195985.20         SATURATED ZONE =          -5445.14

 OVERALL BUDGET ERROR =          -4416.27           BUDGET ERROR =            -77.11


  PERCENT DISCREPANCY =             -0.24    PERCENT DISCREPANCY =             -0.41



1
 SUMMARY VOLUMETRIC BUDGET FOR GSFLOW 
 DATE: 12 02 1980              CUMULATIVE TIME STEP:      63
 MODFLOW STRESS PERIOD      2     CURRENT TIME STEP:      63     ITERATIONS:       7

 -----------------------------------------------------------------------------------

   CUMULATIVE VOLUMES               L**3   RATES FOR THIS TIME STEP           L**3/T
   ------------------                      ------------------------

                                     IN                                         IN
                                     --                                         --
        PRECIPITATION =        2076620.74          PRECIPITATION =                  
           STREAMFLOW =                               STREAMFLOW =                  
     GW BOUNDARY FLOW =                         GW BOUNDARY FLOW =                  


                                    OUT                                        OUT
                                    ---                                        ---
   EVAPOTRANSPIRATION =        1590708.91     EVAPOTRANSPIRATION =          35186.72
           STREAMFLOW =         503028.16             STREAMFLOW =          12898.86
     GW BOUNDARY FLOW =          40873.23       GW BOUNDARY FLOW =            649.19

   INFLOWS - OUTFLOWS =         -57989.56     INFLOWS - OUTFLOWS =         -48734.77
             --------                                   --------

 TOTAL STORAGE CHANGE =         -52994.83         STORAGE CHANGE =         -48668.56
       --------------                             --------------
         LAND SURFACE =         139443.43           LAND SURFACE =         -82002.00
            SOIL ZONE =        1158075.33              SOIL ZONE =          52029.83
     UNSATURATED ZONE =       -1116580.78       UNSATURATED ZONE =         -13682.28
       SATURATED ZONE =        -233932.81         SATURATED ZONE =          -5014.10

 OVERALL BUDGET ERROR =          -4994.73           BUDGET ERROR =            -66.21


  PERCENT DISCREPANCY =             -0.23    PERCENT DISCREPANCY =             -0.14



1
 SUMMARY VOLUMETRIC BUDGET FOR GSFLOW 
 DATE: 12 09 1980              CUMULATIVE TIME STEP:      70
 MODFLOW STRESS PERIOD      2     CURRENT TIME STEP:      70     ITERATIONS:       7

 -----------------------------------------------------------------------------------

   CUMULATIVE VOLUMES               L**3   RATES FOR THIS TIME STEP           L**3/T
   ------------------                      ------------------------

                                     IN                                         IN
                                     --                                         --
        PRECIPITATION =        4284363.13          PRECIPITATION =                  
           STREAMFLOW =                               STREAMFLOW =                  
     GW BOUNDARY FLOW =                         GW BOUNDARY FLOW =                  


                                    OUT                                        OUT
                                    ---                                        ---
   EVAPOTRANSPIRATION =        1617264.40     EVAPOTRANSPIRATION =           4180.71
           STREAMFLOW =         588591.52             STREAMFLOW =          12699.30
     GW BOUNDARY FLOW =          45418.24       GW BOUNDARY FLOW =            649.39

   INFLOWS - OUTFLOWS =        2033088.97     INFLOWS - OUTFLOWS =         -17529.40
             --------                                   --------

 TOTAL STORAGE CHANGE =        2038579.87         STORAGE CHANGE =         -17449.30
       --------------                             --------------
         LAND SURFACE =        2319000.21           LAND SURFACE =          -4180.71
            SOIL ZONE =        1209381.89              SOIL ZONE =           6886.11
     UNSATURATED ZONE =       -1216092.41       UNSATURATED ZONE =         -14239.54
       SATURATED ZONE =        -273709.82         SATURATED ZONE =          -5915.16

 OVERALL BUDGET ERROR =          -5490.90           BUDGET ERROR =            -80.10


  PERCENT DISCREPANCY =             -0.13    PERCENT DISCREPANCY =             -0.46



1
 SUMMARY VOLUMETRIC BUDGET FOR GSFLOW 
 DATE: 12 16 1980              CUMULATIVE TIME STEP:      77
 MODFLOW STRESS PERIOD      2     CURRENT TIME STEP:      77     ITERATIONS:       7

 -----------------------------------------------------------------------------------

   CUMULATIVE VOLUMES               L**3   RATES FOR THIS TIME STEP           L**3/T
   ------------------                      ------------------------

                                     IN                                         IN
                                     --                                         --
        PRECIPITATION =        4284363.13          PRECIPITATION =                  
           STREAMFLOW =                               STREAMFLOW =                  
     GW BOUNDARY FLOW =                         GW BOUNDARY FLOW =                  


                                    OUT                                        OUT
                                    ---                                        ---
   EVAPOTRANSPIRATION =        1768360.20     EVAPOTRANSPIRATION =          35036.08
           STREAMFLOW =         695567.25             STREAMFLOW =          22582.08
     GW BOUNDARY FLOW =          49965.14       GW BOUNDARY FLOW =            649.99

   INFLOWS - OUTFLOWS =        1770470.54     INFLOWS - OUTFLOWS =         -58268.15
             --------                                   --------

 TOTAL STORAGE CHANGE =        1776457.74         STORAGE CHANGE =         -58197.50
       --------------                             --------------
         LAND SURFACE =        1981773.88           LAND SURFACE =        -138704.95
            SOIL ZONE =        1416250.77              SOIL ZONE =          94787.47
     UNSATURATED ZONE =       -1307265.10       UNSATURATED ZONE =          -9696.64
       SATURATED ZONE =        -314301.82         SATURATED ZONE =          -4583.39

 OVERALL BUDGET ERROR =          -5987.20           BUDGET ERROR =            -70.65


  PERCENT DISCREPANCY =             -0.14    PERCENT DISCREPANCY =             -0.12



1
 SUMMARY VOLUMETRIC BUDGET FOR GSFLOW 
 DATE: 12 23 1980              CUMULATIVE TIME STEP:      84
 MODFLOW STRESS PERIOD      2     CURRENT TIME STEP:      84     ITERATIONS:       9

 -----------------------------------------------------------------------------------

   CUMULATIVE VOLUMES               L**3   RATES FOR THIS TIME STEP           L**3/T
   ------------------                      ------------------------

                                     IN                                         IN
                                     --                                         --
        PRECIPITATION =        4516755.31          PRECIPITATION =                  
           STREAMFLOW =                               STREAMFLOW =                  
     GW BOUNDARY FLOW =                         GW BOUNDARY FLOW =                  


                                    OUT                                        OUT
                                    ---                                        ---
   EVAPOTRANSPIRATION =        1971583.33     EVAPOTRANSPIRATION =          34793.24
           STREAMFLOW =         916053.19             STREAMFLOW =          30387.78
     GW BOUNDARY FLOW =          54524.43       GW BOUNDARY FLOW =            651.87

   INFLOWS - OUTFLOWS =        1574594.37     INFLOWS - OUTFLOWS =         -65832.90
             --------                                   --------

 TOTAL STORAGE CHANGE =        1580896.69         STORAGE CHANGE =         -65792.46
       --------------                             --------------
         LAND SURFACE =        1322790.11           LAND SURFACE =         -52496.47
            SOIL ZONE =        1955362.20              SOIL ZONE =          -2354.09
     UNSATURATED ZONE =       -1354445.74       UNSATURATED ZONE =          -6453.48
       SATURATED ZONE =        -342809.88         SATURATED ZONE =          -4488.42

 OVERALL BUDGET ERROR =          -6302.33           BUDGET ERROR =            -40.44


  PERCENT DISCREPANCY =             -0.14    PERCENT DISCREPANCY =             -0.06



1
 SUMMARY VOLUMETRIC BUDGET FOR GSFLOW 
 DATE: 12 30 1980              CUMULATIVE TIME STEP:      91
 MODFLOW STRESS PERIOD      2     CURRENT TIME STEP:      91     ITERATIONS:      10

 -----------------------------------------------------------------------------------

   CUMULATIVE VOLUMES               L**3   RATES FOR THIS TIME STEP           L**3/T
   ------------------                      ------------------------

                                     IN                                         IN
                                     --                                         --
        PRECIPITATION =        4516755.31          PRECIPITATION =                  
           STREAMFLOW =                               STREAMFLOW =                  
     GW BOUNDARY FLOW =                         GW BOUNDARY FLOW =                  


                                    OUT                                        OUT
                                    ---                                        ---
   EVAPOTRANSPIRATION =        2295373.04     EVAPOTRANSPIRATION =          42684.03
           STREAMFLOW =        1160716.65             STREAMFLOW =          27546.94
     GW BOUNDARY FLOW =          59090.89       GW BOUNDARY FLOW =            652.36

   INFLOWS - OUTFLOWS =        1001574.74     INFLOWS - OUTFLOWS =         -70883.33
             --------                                   --------

 TOTAL STORAGE CHANGE =        1008056.20         STORAGE CHANGE =         -70855.86
       --------------                             --------------
         LAND SURFACE =         527895.58           LAND SURFACE =         -40909.18
            SOIL ZONE =        2219385.04              SOIL ZONE =         -21810.59
     UNSATURATED ZONE =       -1369674.33       UNSATURATED ZONE =          -3684.42
       SATURATED ZONE =        -369550.08         SATURATED ZONE =          -4451.68

 OVERALL BUDGET ERROR =          -6481.47           BUDGET ERROR =            -27.47


  PERCENT DISCREPANCY =             -0.14    PERCENT DISCREPANCY =             -0.04



1
 SUMMARY VOLUMETRIC BUDGET FOR GSFLOW 
 DATE: 01 06 1981              CUMULATIVE TIME STEP:      98
 MODFLOW STRESS PERIOD      2     CURRENT TIME STEP:      98     ITERATIONS:       8

 -----------------------------------------------------------------------------------

   CUMULATIVE VOLUMES               L**3   RATES FOR THIS TIME STEP           L**3/T
   ------------------                      ------------------------

                                     IN                                         IN
                                     --                                         --
        PRECIPITATION =        5004445.82          PRECIPITATION =                  
           STREAMFLOW =                               STREAMFLOW =                  
     GW BOUNDARY FLOW =                         GW BOUNDARY FLOW =                  


                                    OUT                                        OUT
                                    ---                                        ---
   EVAPOTRANSPIRATION =        2508085.84     EVAPOTRANSPIRATION =          21276.28
           STREAMFLOW =        1310427.92             STREAMFLOW =          20224.74
     GW BOUNDARY FLOW =          63651.81       GW BOUNDARY FLOW =            651.10

   INFLOWS - OUTFLOWS =        1122280.25     INFLOWS - OUTFLOWS =         -42152.12
             --------                                   --------

 TOTAL STORAGE CHANGE =        1128957.19         STORAGE CHANGE =         -42111.02
       --------------                             --------------
         LAND SURFACE =         782224.66           LAND SURFACE =         -28312.51
            SOIL ZONE =        2192943.64              SOIL ZONE =           3471.58
     UNSATURATED ZONE =       -1437143.75       UNSATURATED ZONE =         -11307.98
       SATURATED ZONE =        -409067.36         SATURATED ZONE =          -5962.12

 OVERALL BUDGET ERROR =          -6676.94           BUDGET ERROR =            -41.11


  PERCENT DISCREPANCY =             -0.13    PERCENT DISCREPANCY =             -0.10



1
 SUMMARY VOLUMETRIC BUDGET FOR GSFLOW 
 DATE: 01 13 1981              CUMULATIVE TIME STEP:     105
 MODFLOW STRESS PERIOD      2     CURRENT TIME STEP:     105     ITERATIONS:       7

 -----------------------------------------------------------------------------------

   CUMULATIVE VOLUMES               L**3   RATES FOR THIS TIME STEP           L**3/T
   ------------------                      ------------------------

                                     IN                                         IN
                                     --                                         --
        PRECIPITATION =        5004445.82          PRECIPITATION =                  
           STREAMFLOW =                               STREAMFLOW =                  
     GW BOUNDARY FLOW =                         GW BOUNDARY FLOW =                  


                                    OUT                                        OUT
                                    ---                                        ---
   EVAPOTRANSPIRATION =        2714525.59     EVAPOTRANSPIRATION =          42858.50
           STREAMFLOW =        1463356.31             STREAMFLOW =          21872.55
     GW BOUNDARY FLOW =          68208.87       GW BOUNDARY FLOW =            650.95

   INFLOWS - OUTFLOWS =         758355.04     INFLOWS - OUTFLOWS =         -65382.00
             --------                                   --------

 TOTAL STORAGE CHANGE =         765417.81         STORAGE CHANGE =         -65328.84
       --------------                             --------------
         LAND SURFACE =         522585.87           LAND SURFACE =         -42176.82
            SOIL ZONE =        2190056.71              SOIL ZONE =         -10272.35
     UNSATURATED ZONE =       -1495561.99       UNSATURATED ZONE =          -6628.06
       SATURATED ZONE =        -451662.78         SATURATED ZONE =          -6251.61

 OVERALL BUDGET ERROR =          -7062.76           BUDGET ERROR =            -53.16


  PERCENT DISCREPANCY =             -0.14    PERCENT DISCREPANCY =             -0.08



1
 SUMMARY VOLUMETRIC BUDGET FOR GSFLOW 
 DATE: 01 20 1981              CUMULATIVE TIME STEP:     112
 MODFLOW STRESS PERIOD      2     CURRENT TIME STEP:     112     ITERATIONS:       9

 -----------------------------------------------------------------------------------

   CUMULATIVE VOLUMES               L**3   RATES FOR THIS TIME STEP           L**3/T
   ------------------                      ------------------------

                                     IN                                         IN
                                     --                                         --
        PRECIPITATION =        5170468.48          PRECIPITATION =          41503.16
           STREAMFLOW =                               STREAMFLOW =                  
     GW BOUNDARY FLOW =                         GW BOUNDARY FLOW =                  


                                    OUT                                        OUT
                                    ---                                        ---
   EVAPOTRANSPIRATION =        3011400.91     EVAPOTRANSPIRATION =          54394.96
           STREAMFLOW =        1603334.86             STREAMFLOW =          18715.74
     GW BOUNDARY FLOW =          72763.73       GW BOUNDARY FLOW =            650.54

   INFLOWS - OUTFLOWS =         482968.97     INFLOWS - OUTFLOWS =         -32258.07
             --------                                   --------

 TOTAL STORAGE CHANGE =         490350.93         STORAGE CHANGE =         -32224.60
       --------------                             --------------
         LAND SURFACE =         369564.67           LAND SURFACE =           4319.81
            SOIL ZONE =        2147100.48              SOIL ZONE =         -27362.57
     UNSATURATED ZONE =       -1529346.61       UNSATURATED ZONE =          -2957.46
       SATURATED ZONE =        -496967.61         SATURATED ZONE =          -6224.38

 OVERALL BUDGET ERROR =          -7381.96           BUDGET ERROR =            -33.47


  PERCENT DISCREPANCY =             -0.14    PERCENT DISCREPANCY =             -0.05



1
 SUMMARY VOLUMETRIC BUDGET FOR GSFLOW 
 DATE: 01 27 1981              CUMULATIVE TIME STEP:     119
 MODFLOW STRESS PERIOD      2     CURRENT TIME STEP:     119     ITERATIONS:       8

 -----------------------------------------------------------------------------------

   CUMULATIVE VOLUMES               L**3   RATES FOR THIS TIME STEP           L**3/T
   ------------------                      ------------------------

                                     IN                                         IN
                                     --                                         --
        PRECIPITATION =        8646542.90          PRECIPITATION =        2936504.96
           STREAMFLOW =                               STREAMFLOW =                  
     GW BOUNDARY FLOW =                         GW BOUNDARY FLOW =                  


                                    OUT                                        OUT
                                    ---                                        ---
   EVAPOTRANSPIRATION =        3242819.46     EVAPOTRANSPIRATION =          12593.32
           STREAMFLOW =        1734925.29             STREAMFLOW =          17570.44
     GW BOUNDARY FLOW =          77316.66       GW BOUNDARY FLOW =            650.27

   INFLOWS - OUTFLOWS =        3591481.50     INFLOWS - OUTFLOWS =        2905690.93
             --------                                   --------

 TOTAL STORAGE CHANGE =        3599103.42         STORAGE CHANGE =        2905732.35
       --------------                             --------------
         LAND SURFACE =        3518014.01           LAND SURFACE =        2923911.72
            SOIL ZONE =        2168321.69              SOIL ZONE =          -4015.83
     UNSATURATED ZONE =       -1542473.59       UNSATURATED ZONE =          -6939.30
       SATURATED ZONE =        -544758.69         SATURATED ZONE =          -7224.23

 OVERALL BUDGET ERROR =          -7621.92           BUDGET ERROR =            -41.42


  PERCENT DISCREPANCY =             -0.09    PERCENT DISCREPANCY =             -0.00



1
 SUMMARY VOLUMETRIC BUDGET FOR GSFLOW 
 DATE: 02 03 1981              CUMULATIVE TIME STEP:     126
 MODFLOW STRESS PERIOD      2     CURRENT TIME STEP:     126     ITERATIONS:       9

 -----------------------------------------------------------------------------------

   CUMULATIVE VOLUMES               L**3   RATES FOR THIS TIME STEP           L**3/T
   ------------------                      ------------------------

                                     IN                                         IN
                                     --                                         --
        PRECIPITATION =        1.1739D+07          PRECIPITATION =                  
           STREAMFLOW =                               STREAMFLOW =                  
     GW BOUNDARY FLOW =                         GW BOUNDARY FLOW =                  


                                    OUT                                        OUT
                                    ---                                        ---
   EVAPOTRANSPIRATION =        3280167.94     EVAPOTRANSPIRATION =           8130.85
           STREAMFLOW =        1857548.99             STREAMFLOW =          17640.97
     GW BOUNDARY FLOW =          81868.03       GW BOUNDARY FLOW =            650.19

   INFLOWS - OUTFLOWS =        6519112.82     INFLOWS - OUTFLOWS =         -26422.01
             --------                                   --------

 TOTAL STORAGE CHANGE =        6527014.32         STORAGE CHANGE =         -26401.24
       --------------                             --------------
         LAND SURFACE =        6572820.42           LAND SURFACE =          -8130.85
            SOIL ZONE =        2166856.45              SOIL ZONE =            917.43
     UNSATURATED ZONE =       -1614452.64       UNSATURATED ZONE =         -11273.27
       SATURATED ZONE =        -598209.90         SATURATED ZONE =          -7914.55

 OVERALL BUDGET ERROR =          -7901.51           BUDGET ERROR =            -20.77


  PERCENT DISCREPANCY =             -0.07    PERCENT DISCREPANCY =             -0.08



1
 SUMMARY VOLUMETRIC BUDGET FOR GSFLOW 
 DATE: 02 10 1981              CUMULATIVE TIME STEP:     133
 MODFLOW STRESS PERIOD      2     CURRENT TIME STEP:     133     ITERATIONS:       7

 -----------------------------------------------------------------------------------

   CUMULATIVE VOLUMES               L**3   RATES FOR THIS TIME STEP           L**3/T
   ------------------                      ------------------------

                                     IN                                         IN
                                     --                                         --
        PRECIPITATION =        1.1838D+07          PRECIPITATION =                  
           STREAMFLOW =                               STREAMFLOW =                  
     GW BOUNDARY FLOW =                         GW BOUNDARY FLOW =                  


                                    OUT                                        OUT
                                    ---                                        ---
   EVAPOTRANSPIRATION =        3413970.29     EVAPOTRANSPIRATION =          34657.17
           STREAMFLOW =        1982077.43             STREAMFLOW =          17867.50
     GW BOUNDARY FLOW =          86419.46       GW BOUNDARY FLOW =            650.20

   INFLOWS - OUTFLOWS =        6355796.06     INFLOWS - OUTFLOWS =         -53174.87
             --------                                   --------

 TOTAL STORAGE CHANGE =        6364046.33         STORAGE CHANGE =         -53099.95
       --------------                             --------------
         LAND SURFACE =        6538583.53           LAND SURFACE =         -34657.17
            SOIL ZONE =        2172432.06              SOIL ZONE =            718.40
     UNSATURATED ZONE =       -1691018.68       UNSATURATED ZONE =         -10662.11
       SATURATED ZONE =        -655950.58         SATURATED ZONE =          -8499.06

 OVERALL BUDGET ERROR =          -8250.27           BUDGET ERROR =            -74.92


  PERCENT DISCREPANCY =             -0.07    PERCENT DISCREPANCY =             -0.14



1
 SUMMARY VOLUMETRIC BUDGET FOR GSFLOW 
 DATE: 02 17 1981              CUMULATIVE TIME STEP:     140
 MODFLOW STRESS PERIOD      2     CURRENT TIME STEP:     140     ITERATIONS:      14

 -----------------------------------------------------------------------------------

   CUMULATIVE VOLUMES               L**3   RATES FOR THIS TIME STEP           L**3/T
   ------------------                      ------------------------

                                     IN                                         IN
                                     --                                         --
        PRECIPITATION =        1.2765D+07          PRECIPITATION =          68928.68
           STREAMFLOW =                               STREAMFLOW =                  
     GW BOUNDARY FLOW =                         GW BOUNDARY FLOW =                  


                                    OUT                                        OUT
                                    ---                                        ---
   EVAPOTRANSPIRATION =        3757152.70     EVAPOTRANSPIRATION =          68109.61
           STREAMFLOW =        2503614.87             STREAMFLOW =         124340.52
     GW BOUNDARY FLOW =          90992.09       GW BOUNDARY FLOW =            656.69

   INFLOWS - OUTFLOWS =        6413221.01     INFLOWS - OUTFLOWS =        -124178.15
             --------                                   --------

 TOTAL STORAGE CHANGE =        6421737.29         STORAGE CHANGE =        -124168.43
       --------------                             --------------
         LAND SURFACE =        5590450.58           LAND SURFACE =        -287416.56
            SOIL ZONE =        2960853.48              SOIL ZONE =          83128.61
     UNSATURATED ZONE =       -1454319.78       UNSATURATED ZONE =          78135.98
       SATURATED ZONE =        -675246.99         SATURATED ZONE =           1983.54

 OVERALL BUDGET ERROR =          -8516.28           BUDGET ERROR =             -9.72


  PERCENT DISCREPANCY =             -0.07    PERCENT DISCREPANCY =             -0.01



1
 SUMMARY VOLUMETRIC BUDGET FOR GSFLOW 
 DATE: 02 24 1981              CUMULATIVE TIME STEP:     147
 MODFLOW STRESS PERIOD      2     CURRENT TIME STEP:     147     ITERATIONS:      14

 -----------------------------------------------------------------------------------

   CUMULATIVE VOLUMES               L**3   RATES FOR THIS TIME STEP           L**3/T
   ------------------                      ------------------------

                                     IN                                         IN
                                     --                                         --
        PRECIPITATION =        1.3179D+07          PRECIPITATION =         344647.71
           STREAMFLOW =                               STREAMFLOW =                  
     GW BOUNDARY FLOW =                         GW BOUNDARY FLOW =                  


                                    OUT                                        OUT
                                    ---                                        ---
   EVAPOTRANSPIRATION =        4105973.61     EVAPOTRANSPIRATION =          19832.91
           STREAMFLOW =        3090089.12             STREAMFLOW =          53241.30
     GW BOUNDARY FLOW =          95587.09       GW BOUNDARY FLOW =            655.43

   INFLOWS - OUTFLOWS =        5886908.63     INFLOWS - OUTFLOWS =         270918.07
             --------                                   --------

 TOTAL STORAGE CHANGE =        5895306.90         STORAGE CHANGE =         270896.52
       --------------                             --------------
         LAND SURFACE =        4908831.74           LAND SURFACE =         300247.21
            SOIL ZONE =        2710654.91              SOIL ZONE =         -63542.17
     UNSATURATED ZONE =       -1072973.29       UNSATURATED ZONE =          31391.18
       SATURATED ZONE =        -651206.46         SATURATED ZONE =           2800.29

 OVERALL BUDGET ERROR =          -8398.28           BUDGET ERROR =             21.55


  PERCENT DISCREPANCY =             -0.06    PERCENT DISCREPANCY =              0.01



1
 SUMMARY VOLUMETRIC BUDGET FOR GSFLOW 
 DATE: 03 03 1981              CUMULATIVE TIME STEP:     154
 MODFLOW STRESS PERIOD      2     CURRENT TIME STEP:     154     ITERATIONS:      11

 -----------------------------------------------------------------------------------

   CUMULATIVE VOLUMES               L**3   RATES FOR THIS TIME STEP           L**3/T
   ------------------                      ------------------------

                                     IN                                         IN
                                     --                                         --
        PRECIPITATION =        1.3447D+07          PRECIPITATION =                  
           STREAMFLOW =                               STREAMFLOW =                  
     GW BOUNDARY FLOW =                         GW BOUNDARY FLOW =                  


                                    OUT                                        OUT
                                    ---                                        ---
   EVAPOTRANSPIRATION =        4268596.72     EVAPOTRANSPIRATION =          44519.47
           STREAMFLOW =        3316480.55             STREAMFLOW =          27494.42
     GW BOUNDARY FLOW =         100160.61       GW BOUNDARY FLOW =            652.32

   INFLOWS - OUTFLOWS =        5761380.91     INFLOWS - OUTFLOWS =         -72666.22
             --------                                   --------

 TOTAL STORAGE CHANGE =        5769676.83         STORAGE CHANGE =         -72678.00
       --------------                             --------------
         LAND SURFACE =        4994695.89           LAND SURFACE =         -62720.72
            SOIL ZONE =        2487967.88              SOIL ZONE =            628.54
     UNSATURATED ZONE =       -1058602.36       UNSATURATED ZONE =          -8513.07
       SATURATED ZONE =        -654384.58         SATURATED ZONE =          -2072.75

 OVERALL BUDGET ERROR =          -8295.92           BUDGET ERROR =             11.79


  PERCENT DISCREPANCY =             -0.06    PERCENT DISCREPANCY =              0.02



1
 SUMMARY VOLUMETRIC BUDGET FOR GSFLOW 
 DATE: 03 10 1981              CUMULATIVE TIME STEP:     161
 MODFLOW STRESS PERIOD      2     CURRENT TIME STEP:     161     ITERATIONS:      11

 -----------------------------------------------------------------------------------

   CUMULATIVE VOLUMES               L**3   RATES FOR THIS TIME STEP           L**3/T
   ------------------                      ------------------------

                                     IN                                         IN
                                     --                                         --
        PRECIPITATION =        1.3493D+07          PRECIPITATION =                  
           STREAMFLOW =                               STREAMFLOW =                  
     GW BOUNDARY FLOW =                         GW BOUNDARY FLOW =                  


                                    OUT                                        OUT
                                    ---                                        ---
   EVAPOTRANSPIRATION =        4585851.89     EVAPOTRANSPIRATION =          63236.48
           STREAMFLOW =        3555741.06             STREAMFLOW =          44872.64
     GW BOUNDARY FLOW =         104727.02       GW BOUNDARY FLOW =            653.02

   INFLOWS - OUTFLOWS =        5246634.54     INFLOWS - OUTFLOWS =        -108762.14
             --------                                   --------

 TOTAL STORAGE CHANGE =        5254838.95         STORAGE CHANGE =        -108769.97
       --------------                             --------------
         LAND SURFACE =        4325943.99           LAND SURFACE =        -164687.77
            SOIL ZONE =        2617065.81              SOIL ZONE =          33629.15
     UNSATURATED ZONE =       -1022307.34       UNSATURATED ZONE =          22433.80
       SATURATED ZONE =        -665863.51         SATURATED ZONE =           -145.15

 OVERALL BUDGET ERROR =          -8204.41           BUDGET ERROR =              7.83


  PERCENT DISCREPANCY =             -0.06    PERCENT DISCREPANCY =              0.01



1
 SUMMARY VOLUMETRIC BUDGET FOR GSFLOW 
 DATE: 03 17 1981              CUMULATIVE TIME STEP:     168
 MODFLOW STRESS PERIOD      2     CURRENT TIME STEP:     168     ITERATIONS:       9

 -----------------------------------------------------------------------------------

   CUMULATIVE VOLUMES               L**3   RATES FOR THIS TIME STEP           L**3/T
   ------------------                      ------------------------

                                     IN                                         IN
                                     --                                         --
        PRECIPITATION =        1.3745D+07          PRECIPITATION =                  
           STREAMFLOW =                               STREAMFLOW =                  
     GW BOUNDARY FLOW =                         GW BOUNDARY FLOW =                  


                                    OUT                                        OUT
                                    ---                                        ---
   EVAPOTRANSPIRATION =        4942397.54     EVAPOTRANSPIRATION =          39557.19
           STREAMFLOW =        3790222.92             STREAMFLOW =          24389.24
     GW BOUNDARY FLOW =         109295.32       GW BOUNDARY FLOW =            652.00

   INFLOWS - OUTFLOWS =        4902587.04     INFLOWS - OUTFLOWS =         -64598.43
             --------                                   --------

 TOTAL STORAGE CHANGE =        4910701.63         STORAGE CHANGE =         -64599.20
       --------------                             --------------
         LAND SURFACE =        4147186.29           LAND SURFACE =         -39206.25
            SOIL ZONE =        2436439.96              SOIL ZONE =          -5635.82
     UNSATURATED ZONE =        -992677.10       UNSATURATED ZONE =         -15630.51
       SATURATED ZONE =        -680247.52         SATURATED ZONE =          -4126.63

 OVERALL BUDGET ERROR =          -8114.59           BUDGET ERROR =              0.77


  PERCENT DISCREPANCY =             -0.06    PERCENT DISCREPANCY =              0.00



1
 SUMMARY VOLUMETRIC BUDGET FOR GSFLOW 
 DATE: 03 24 1981              CUMULATIVE TIME STEP:     175
 MODFLOW STRESS PERIOD      2     CURRENT TIME STEP:     175     ITERATIONS:       9

 -----------------------------------------------------------------------------------

   CUMULATIVE VOLUMES               L**3   RATES FOR THIS TIME STEP           L**3/T
   ------------------                      ------------------------

                                     IN                                         IN
                                     --                                         --
        PRECIPITATION =        1.4367D+07          PRECIPITATION =                  
           STREAMFLOW =                               STREAMFLOW =                  
     GW BOUNDARY FLOW =                         GW BOUNDARY FLOW =                  


                                    OUT                                        OUT
                                    ---                                        ---
   EVAPOTRANSPIRATION =        5295469.98     EVAPOTRANSPIRATION =          85696.82
           STREAMFLOW =        3961832.34             STREAMFLOW =          27191.21
     GW BOUNDARY FLOW =         113855.83       GW BOUNDARY FLOW =            651.44

   INFLOWS - OUTFLOWS =        4995598.09     INFLOWS - OUTFLOWS =        -113539.47
             --------                                   --------

 TOTAL STORAGE CHANGE =        5003735.48         STORAGE CHANGE =        -113530.28
       --------------                             --------------
         LAND SURFACE =        4457419.17           LAND SURFACE =         -75487.79
            SOIL ZONE =        2333733.68              SOIL ZONE =         -28612.52
     UNSATURATED ZONE =       -1073561.43       UNSATURATED ZONE =          -4473.73
       SATURATED ZONE =        -713855.94         SATURATED ZONE =          -4956.23

 OVERALL BUDGET ERROR =          -8137.39           BUDGET ERROR =             -9.20


  PERCENT DISCREPANCY =             -0.06    PERCENT DISCREPANCY =             -0.01



1
 SUMMARY VOLUMETRIC BUDGET FOR GSFLOW 
 DATE: 03 31 1981              CUMULATIVE TIME STEP:     182
 MODFLOW STRESS PERIOD      2     CURRENT TIME STEP:     182     ITERATIONS:      12

 -----------------------------------------------------------------------------------

   CUMULATIVE VOLUMES               L**3   RATES FOR THIS TIME STEP           L**3/T
   ------------------                      ------------------------

                                     IN                                         IN
                                     --                                         --
        PRECIPITATION =        1.5777D+07          PRECIPITATION =                  
           STREAMFLOW =                               STREAMFLOW =                  
     GW BOUNDARY FLOW =                         GW BOUNDARY FLOW =                  


                                    OUT                                        OUT
                                    ---                                        ---
   EVAPOTRANSPIRATION =        5720979.33     EVAPOTRANSPIRATION =          55421.24
           STREAMFLOW =        4441000.78             STREAMFLOW =          35789.31
     GW BOUNDARY FLOW =         118436.23       GW BOUNDARY FLOW =            653.43

   INFLOWS - OUTFLOWS =        5496349.84     INFLOWS - OUTFLOWS =         -91863.98
             --------                                   --------

 TOTAL STORAGE CHANGE =        5504404.02         STORAGE CHANGE =         -91883.99
       --------------                             --------------
         LAND SURFACE =        4577075.94           LAND SURFACE =         -56225.76
            SOIL ZONE =        2512397.32              SOIL ZONE =         -36779.90
     UNSATURATED ZONE =        -873877.07       UNSATURATED ZONE =           2406.78
       SATURATED ZONE =        -711192.17         SATURATED ZONE =          -1285.10

 OVERALL BUDGET ERROR =          -8054.18           BUDGET ERROR =             20.00


  PERCENT DISCREPANCY =             -0.05    PERCENT DISCREPANCY =              0.02



1
 SUMMARY VOLUMETRIC BUDGET FOR GSFLOW 
 DATE: 04 07 1981              CUMULATIVE TIME STEP:     189
 MODFLOW STRESS PERIOD      2     CURRENT TIME STEP:     189     ITERATIONS:      10

 -----------------------------------------------------------------------------------

   CUMULATIVE VOLUMES               L**3   RATES FOR THIS TIME STEP           L**3/T
   ------------------                      ------------------------

                                     IN                                         IN
                                     --                                         --
        PRECIPITATION =        1.6121D+07          PRECIPITATION =                  
           STREAMFLOW =                               STREAMFLOW =                  
     GW BOUNDARY FLOW =                         GW BOUNDARY FLOW =                  


                                    OUT                                        OUT
                                    ---                                        ---
   EVAPOTRANSPIRATION =        6366583.92     EVAPOTRANSPIRATION =         106275.95
           STREAMFLOW =        4761094.53             STREAMFLOW =          44603.42
     GW BOUNDARY FLOW =         123011.51       GW BOUNDARY FLOW =            653.85

   INFLOWS - OUTFLOWS =        4870793.19     INFLOWS - OUTFLOWS =        -151533.22
             --------                                   --------

 TOTAL STORAGE CHANGE =        4878718.03         STORAGE CHANGE =        -151568.16
       --------------                             --------------
         LAND SURFACE =        3928055.43           LAND SURFACE =        -143363.94
            SOIL ZONE =        2462776.04              SOIL ZONE =         -19626.23
     UNSATURATED ZONE =        -802053.55       UNSATURATED ZONE =          10944.06
       SATURATED ZONE =        -710059.89         SATURATED ZONE =            477.95

 OVERALL BUDGET ERROR =          -7924.84           BUDGET ERROR =             34.94


  PERCENT DISCREPANCY =             -0.05    PERCENT DISCREPANCY =              0.02



1
 SUMMARY VOLUMETRIC BUDGET FOR GSFLOW 
 DATE: 04 14 1981              CUMULATIVE TIME STEP:     196
 MODFLOW STRESS PERIOD      2     CURRENT TIME STEP:     196     ITERATIONS:      13

 -----------------------------------------------------------------------------------

   CUMULATIVE VOLUMES               L**3   RATES FOR THIS TIME STEP           L**3/T
   ------------------                      ------------------------

                                     IN                                         IN
                                     --                                         --
        PRECIPITATION =        1.6121D+07          PRECIPITATION =                  
           STREAMFLOW =                               STREAMFLOW =                  
     GW BOUNDARY FLOW =                         GW BOUNDARY FLOW =                  


                                    OUT                                        OUT
                                    ---                                        ---
   EVAPOTRANSPIRATION =        7293614.96     EVAPOTRANSPIRATION =         190847.08
           STREAMFLOW =        5085905.36             STREAMFLOW =          53605.41
     GW BOUNDARY FLOW =         127586.82       GW BOUNDARY FLOW =            653.53

   INFLOWS - OUTFLOWS =        3614376.01     INFLOWS - OUTFLOWS =        -245106.01
             --------                                   --------

 TOTAL STORAGE CHANGE =        3622154.31         STORAGE CHANGE =        -245115.99
       --------------                             --------------
         LAND SURFACE =        2665127.62           LAND SURFACE =        -250987.89
            SOIL ZONE =        2376366.26              SOIL ZONE =         -14099.64
     UNSATURATED ZONE =        -714958.03       UNSATURATED ZONE =          18038.71
       SATURATED ZONE =        -704381.54         SATURATED ZONE =           1932.84

 OVERALL BUDGET ERROR =          -7778.31           BUDGET ERROR =              9.97


  PERCENT DISCREPANCY =             -0.05    PERCENT DISCREPANCY =              0.00



1
 SUMMARY VOLUMETRIC BUDGET FOR GSFLOW 
 DATE: 04 21 1981              CUMULATIVE TIME STEP:     203
 MODFLOW STRESS PERIOD      2     CURRENT TIME STEP:     203     ITERATIONS:      13

 -----------------------------------------------------------------------------------

   CUMULATIVE VOLUMES               L**3   RATES FOR THIS TIME STEP           L**3/T
   ------------------                      ------------------------

                                     IN                                         IN
                                     --                                         --
        PRECIPITATION =        1.6310D+07          PRECIPITATION =                  
           STREAMFLOW =                               STREAMFLOW =                  
     GW BOUNDARY FLOW =                         GW BOUNDARY FLOW =                  


                                    OUT                                        OUT
                                    ---                                        ---
   EVAPOTRANSPIRATION =        8370049.06     EVAPOTRANSPIRATION =         153949.13
           STREAMFLOW =        5414526.38             STREAMFLOW =          44378.31
     GW BOUNDARY FLOW =         132156.96       GW BOUNDARY FLOW =            652.47

   INFLOWS - OUTFLOWS =        2393525.02     INFLOWS - OUTFLOWS =        -198979.91
             --------                                   --------

 TOTAL STORAGE CHANGE =        2401164.74         STORAGE CHANGE =        -199003.93
       --------------                             --------------
         LAND SURFACE =        1475704.63           LAND SURFACE =        -123511.17
            SOIL ZONE =        2213749.64              SOIL ZONE =         -94400.62
     UNSATURATED ZONE =        -599077.72       UNSATURATED ZONE =          16370.29
       SATURATED ZONE =        -689211.81         SATURATED ZONE =           2537.57

 OVERALL BUDGET ERROR =          -7639.72           BUDGET ERROR =             24.02


  PERCENT DISCREPANCY =             -0.05    PERCENT DISCREPANCY =              0.01



1
 SUMMARY VOLUMETRIC BUDGET FOR GSFLOW 
 DATE: 04 28 1981              CUMULATIVE TIME STEP:     210
 MODFLOW STRESS PERIOD      2     CURRENT TIME STEP:     210     ITERATIONS:      14

 -----------------------------------------------------------------------------------

   CUMULATIVE VOLUMES               L**3   RATES FOR THIS TIME STEP           L**3/T
   ------------------                      ------------------------

                                     IN                                         IN
                                     --                                         --
        PRECIPITATION =        1.6515D+07          PRECIPITATION =                  
           STREAMFLOW =                               STREAMFLOW =                  
     GW BOUNDARY FLOW =                         GW BOUNDARY FLOW =                  


                                    OUT                                        OUT
                                    ---                                        ---
   EVAPOTRANSPIRATION =        9619798.63     EVAPOTRANSPIRATION =         200804.56
           STREAMFLOW =        5615917.36             STREAMFLOW =          22357.39
     GW BOUNDARY FLOW =         136715.33       GW BOUNDARY FLOW =            650.28

   INFLOWS - OUTFLOWS =        1143015.64     INFLOWS - OUTFLOWS =        -223812.24
             --------                                   --------

 TOTAL STORAGE CHANGE =        1150516.03         STORAGE CHANGE =        -223825.44
       --------------                             --------------
         LAND SURFACE =         739973.28           LAND SURFACE =         -83400.72
            SOIL ZONE =        1694621.95              SOIL ZONE =        -134768.21
     UNSATURATED ZONE =        -595318.07       UNSATURATED ZONE =          -4762.69
       SATURATED ZONE =        -688761.12         SATURATED ZONE =           -893.82

 OVERALL BUDGET ERROR =          -7500.40           BUDGET ERROR =             13.20


  PERCENT DISCREPANCY =             -0.05    PERCENT DISCREPANCY =              0.01



1
 SUMMARY VOLUMETRIC BUDGET FOR GSFLOW 
 DATE: 05 05 1981              CUMULATIVE TIME STEP:     217
 MODFLOW STRESS PERIOD      2     CURRENT TIME STEP:     217     ITERATIONS:      14

 -----------------------------------------------------------------------------------

   CUMULATIVE VOLUMES               L**3   RATES FOR THIS TIME STEP           L**3/T
   ------------------                      ------------------------

                                     IN                                         IN
                                     --                                         --
        PRECIPITATION =        1.6515D+07          PRECIPITATION =                  
           STREAMFLOW =                               STREAMFLOW =                  
     GW BOUNDARY FLOW =                         GW BOUNDARY FLOW =                  


                                    OUT                                        OUT
                                    ---                                        ---
   EVAPOTRANSPIRATION =        1.0515D+07     EVAPOTRANSPIRATION =          57480.94
           STREAMFLOW =        5712468.54             STREAMFLOW =          10086.68
     GW BOUNDARY FLOW =         141260.48       GW BOUNDARY FLOW =            648.67

   INFLOWS - OUTFLOWS =         146382.77     INFLOWS - OUTFLOWS =         -68216.29
             --------                                   --------

 TOTAL STORAGE CHANGE =         153850.85         STORAGE CHANGE =         -68207.18
       --------------                             --------------
         LAND SURFACE =         388558.93           LAND SURFACE =         -18600.19
            SOIL ZONE =        1160546.16              SOIL ZONE =         -30542.31
     UNSATURATED ZONE =        -689309.70       UNSATURATED ZONE =         -16024.22
       SATURATED ZONE =        -705944.54         SATURATED ZONE =          -3040.46

 OVERALL BUDGET ERROR =          -7468.08           BUDGET ERROR =             -9.11


  PERCENT DISCREPANCY =             -0.05    PERCENT DISCREPANCY =             -0.01



1
 SUMMARY VOLUMETRIC BUDGET FOR GSFLOW 
 DATE: 05 12 1981              CUMULATIVE TIME STEP:     224
 MODFLOW STRESS PERIOD      2     CURRENT TIME STEP:     224     ITERATIONS:      11

 -----------------------------------------------------------------------------------

   CUMULATIVE VOLUMES               L**3   RATES FOR THIS TIME STEP           L**3/T
   ------------------                      ------------------------

                                     IN                                         IN
                                     --                                         --
        PRECIPITATION =        1.6515D+07          PRECIPITATION =                  
           STREAMFLOW =                               STREAMFLOW =                  
     GW BOUNDARY FLOW =                         GW BOUNDARY FLOW =                  


                                    OUT                                        OUT
                                    ---                                        ---
   EVAPOTRANSPIRATION =        1.1033D+07     EVAPOTRANSPIRATION =          91950.37
           STREAMFLOW =        5780164.35             STREAMFLOW =          10189.94
     GW BOUNDARY FLOW =         145798.53       GW BOUNDARY FLOW =            648.16

   INFLOWS - OUTFLOWS =        -443899.03     INFLOWS - OUTFLOWS =        -102788.47
             --------                                   --------

 TOTAL STORAGE CHANGE =        -436465.37         STORAGE CHANGE =        -102793.19
       --------------                             --------------
         LAND SURFACE =         230822.80           LAND SURFACE =         -27784.94
            SOIL ZONE =         862710.93              SOIL ZONE =         -56592.17
     UNSATURATED ZONE =        -792494.49       UNSATURATED ZONE =         -12955.36
       SATURATED ZONE =        -737504.61         SATURATED ZONE =          -5460.71

 OVERALL BUDGET ERROR =          -7433.67           BUDGET ERROR =              4.72


  PERCENT DISCREPANCY =             -0.04    PERCENT DISCREPANCY =              0.00



1
 SUMMARY VOLUMETRIC BUDGET FOR GSFLOW 
 DATE: 05 19 1981              CUMULATIVE TIME STEP:     231
 MODFLOW STRESS PERIOD      2     CURRENT TIME STEP:     231     ITERATIONS:      14

 -----------------------------------------------------------------------------------

   CUMULATIVE VOLUMES               L**3   RATES FOR THIS TIME STEP           L**3/T
   ------------------                      ------------------------

                                     IN                                         IN
                                     --                                         --
        PRECIPITATION =        1.7837D+07          PRECIPITATION =         169047.83
           STREAMFLOW =                               STREAMFLOW =                  
     GW BOUNDARY FLOW =                         GW BOUNDARY FLOW =                  


                                    OUT                                        OUT
                                    ---                                        ---
   EVAPOTRANSPIRATION =        1.1442D+07     EVAPOTRANSPIRATION =          34209.10
           STREAMFLOW =        5898689.75             STREAMFLOW =          21667.41
     GW BOUNDARY FLOW =         150337.45       GW BOUNDARY FLOW =            649.26

   INFLOWS - OUTFLOWS =         346137.55     INFLOWS - OUTFLOWS =         112522.06
             --------                                   --------

 TOTAL STORAGE CHANGE =         353573.74         STORAGE CHANGE =         112528.49
       --------------                             --------------
         LAND SURFACE =         197020.78           LAND SURFACE =          20526.25
            SOIL ZONE =        1793987.69              SOIL ZONE =         100541.32
     UNSATURATED ZONE =        -857368.34       UNSATURATED ZONE =          -1951.71
       SATURATED ZONE =        -780066.38         SATURATED ZONE =          -6587.37

 OVERALL BUDGET ERROR =          -7436.19           BUDGET ERROR =             -6.43


  PERCENT DISCREPANCY =             -0.04    PERCENT DISCREPANCY =             -0.00



1
 SUMMARY VOLUMETRIC BUDGET FOR GSFLOW 
 DATE: 05 26 1981              CUMULATIVE TIME STEP:     238
 MODFLOW STRESS PERIOD      2     CURRENT TIME STEP:     238     ITERATIONS:      16

 -----------------------------------------------------------------------------------

   CUMULATIVE VOLUMES               L**3   RATES FOR THIS TIME STEP           L**3/T
   ------------------                      ------------------------

                                     IN                                         IN
                                     --                                         --
        PRECIPITATION =        1.8252D+07          PRECIPITATION =         284301.98
           STREAMFLOW =                               STREAMFLOW =                  
     GW BOUNDARY FLOW =                         GW BOUNDARY FLOW =                  


                                    OUT                                        OUT
                                    ---                                        ---
   EVAPOTRANSPIRATION =        1.2352D+07     EVAPOTRANSPIRATION =         145739.43
           STREAMFLOW =        5998184.03             STREAMFLOW =          17737.29
     GW BOUNDARY FLOW =         154877.22       GW BOUNDARY FLOW =            648.36

   INFLOWS - OUTFLOWS =        -252897.87     INFLOWS - OUTFLOWS =         120176.91
             --------                                   --------

 TOTAL STORAGE CHANGE =        -245454.00         STORAGE CHANGE =         120183.85
       --------------                             --------------
         LAND SURFACE =         119259.46           LAND SURFACE =          -7679.45
            SOIL ZONE =        1385797.82              SOIL ZONE =         145531.18
     UNSATURATED ZONE =        -919992.65       UNSATURATED ZONE =         -10735.52
       SATURATED ZONE =        -830518.63         SATURATED ZONE =          -6932.35

 OVERALL BUDGET ERROR =          -7443.87           BUDGET ERROR =             -6.95


  PERCENT DISCREPANCY =             -0.04    PERCENT DISCREPANCY =             -0.00



1
 SUMMARY VOLUMETRIC BUDGET FOR GSFLOW 
 DATE: 06 02 1981              CUMULATIVE TIME STEP:     245
 MODFLOW STRESS PERIOD      2     CURRENT TIME STEP:     245     ITERATIONS:      12

 -----------------------------------------------------------------------------------

   CUMULATIVE VOLUMES               L**3   RATES FOR THIS TIME STEP           L**3/T
   ------------------                      ------------------------

                                     IN                                         IN
                                     --                                         --
        PRECIPITATION =        1.8318D+07          PRECIPITATION =          50867.39
           STREAMFLOW =                               STREAMFLOW =                  
     GW BOUNDARY FLOW =                         GW BOUNDARY FLOW =                  


                                    OUT                                        OUT
                                    ---                                        ---
   EVAPOTRANSPIRATION =        1.3143D+07     EVAPOTRANSPIRATION =          74605.72
           STREAMFLOW =        6063822.95             STREAMFLOW =           7537.74
     GW BOUNDARY FLOW =         159411.83       GW BOUNDARY FLOW =            647.42

   INFLOWS - OUTFLOWS =       -1048456.37     INFLOWS - OUTFLOWS =         -31923.49
             --------                                   --------

 TOTAL STORAGE CHANGE =       -1040981.39         STORAGE CHANGE =         -31914.97
       --------------                             --------------
         LAND SURFACE =          74877.44           LAND SURFACE =          28709.79
            SOIL ZONE =         776924.33              SOIL ZONE =         -39183.46
     UNSATURATED ZONE =       -1004030.30       UNSATURATED ZONE =         -12597.10
       SATURATED ZONE =        -888752.86         SATURATED ZONE =          -8844.20

 OVERALL BUDGET ERROR =          -7474.98           BUDGET ERROR =             -8.52


  PERCENT DISCREPANCY =             -0.04    PERCENT DISCREPANCY =             -0.01



1
 SUMMARY VOLUMETRIC BUDGET FOR GSFLOW 
 DATE: 06 09 1981              CUMULATIVE TIME STEP:     252
 MODFLOW STRESS PERIOD      2     CURRENT TIME STEP:     252     ITERATIONS:      15

 -----------------------------------------------------------------------------------

   CUMULATIVE VOLUMES               L**3   RATES FOR THIS TIME STEP           L**3/T
   ------------------                      ------------------------

                                     IN                                         IN
                                     --                                         --
        PRECIPITATION =        1.8318D+07          PRECIPITATION =                  
           STREAMFLOW =                               STREAMFLOW =                  
     GW BOUNDARY FLOW =                         GW BOUNDARY FLOW =                  


                                    OUT                                        OUT
                                    ---                                        ---
   EVAPOTRANSPIRATION =        1.3611D+07     EVAPOTRANSPIRATION =          50129.84
           STREAMFLOW =        6110485.25             STREAMFLOW =           6296.30
     GW BOUNDARY FLOW =         163941.83       GW BOUNDARY FLOW =            646.99

   INFLOWS - OUTFLOWS =       -1566962.10     INFLOWS - OUTFLOWS =         -57073.13
             --------                                   --------

 TOTAL STORAGE CHANGE =       -1559410.20         STORAGE CHANGE =         -57067.32
       --------------                             --------------
         LAND SURFACE =          13019.19           LAND SURFACE =          -2935.64
            SOIL ZONE =         474080.87              SOIL ZONE =         -32071.82
     UNSATURATED ZONE =       -1092309.86       UNSATURATED ZONE =         -12452.56
       SATURATED ZONE =        -954200.40         SATURATED ZONE =          -9607.29

 OVERALL BUDGET ERROR =          -7551.90           BUDGET ERROR =             -5.81


  PERCENT DISCREPANCY =             -0.04    PERCENT DISCREPANCY =             -0.01



1
 SUMMARY VOLUMETRIC BUDGET FOR GSFLOW 
 DATE: 06 16 1981              CUMULATIVE TIME STEP:     259
 MODFLOW STRESS PERIOD      2     CURRENT TIME STEP:     259     ITERATIONS:      13

 -----------------------------------------------------------------------------------

   CUMULATIVE VOLUMES               L**3   RATES FOR THIS TIME STEP           L**3/T
   ------------------                      ------------------------

                                     IN                                         IN
                                     --                                         --
        PRECIPITATION =        1.8318D+07          PRECIPITATION =                  
           STREAMFLOW =                               STREAMFLOW =                  
     GW BOUNDARY FLOW =                         GW BOUNDARY FLOW =                  


                                    OUT                                        OUT
                                    ---                                        ---
   EVAPOTRANSPIRATION =        1.3797D+07     EVAPOTRANSPIRATION =          41355.39
           STREAMFLOW =        6153322.59             STREAMFLOW =           6055.23
     GW BOUNDARY FLOW =         168469.77       GW BOUNDARY FLOW =            646.76

   INFLOWS - OUTFLOWS =       -1800972.60     INFLOWS - OUTFLOWS =         -48057.39
             --------                                   --------

 TOTAL STORAGE CHANGE =       -1793353.71         STORAGE CHANGE =         -48050.15
       --------------                             --------------
         LAND SURFACE =           5883.13           LAND SURFACE =          -1269.40
            SOIL ZONE =         400341.62              SOIL ZONE =         -25042.90
     UNSATURATED ZONE =       -1177639.97       UNSATURATED ZONE =         -12071.24
       SATURATED ZONE =       -1021938.49         SATURATED ZONE =          -9666.60

 OVERALL BUDGET ERROR =          -7618.89           BUDGET ERROR =             -7.24


  PERCENT DISCREPANCY =             -0.04    PERCENT DISCREPANCY =             -0.02



1
 SUMMARY VOLUMETRIC BUDGET FOR GSFLOW 
 DATE: 06 23 1981              CUMULATIVE TIME STEP:     266
 MODFLOW STRESS PERIOD      2     CURRENT TIME STEP:     266     ITERATIONS:      11

 -----------------------------------------------------------------------------------

   CUMULATIVE VOLUMES               L**3   RATES FOR THIS TIME STEP           L**3/T
   ------------------                      ------------------------

                                     IN                                         IN
                                     --                                         --
        PRECIPITATION =        1.8318D+07          PRECIPITATION =                  
           STREAMFLOW =                               STREAMFLOW =                  
     GW BOUNDARY FLOW =                         GW BOUNDARY FLOW =                  


                                    OUT                                        OUT
                                    ---                                        ---
   EVAPOTRANSPIRATION =        1.4074D+07     EVAPOTRANSPIRATION =          30886.78
           STREAMFLOW =        6195036.05             STREAMFLOW =           5904.41
     GW BOUNDARY FLOW =         172996.60       GW BOUNDARY FLOW =            646.77

   INFLOWS - OUTFLOWS =       -2123302.97     INFLOWS - OUTFLOWS =         -37437.97
             --------                                   --------

 TOTAL STORAGE CHANGE =       -2115612.85         STORAGE CHANGE =         -37428.49
       --------------                             --------------
         LAND SURFACE =                             LAND SURFACE =                  
            SOIL ZONE =         235015.55              SOIL ZONE =         -15965.97
     UNSATURATED ZONE =       -1258924.82       UNSATURATED ZONE =         -11210.73
       SATURATED ZONE =       -1091703.58         SATURATED ZONE =         -10251.79

 OVERALL BUDGET ERROR =          -7690.12           BUDGET ERROR =             -9.48


  PERCENT DISCREPANCY =             -0.04    PERCENT DISCREPANCY =             -0.03



1
 SUMMARY VOLUMETRIC BUDGET FOR GSFLOW 
 DATE: 06 30 1981              CUMULATIVE TIME STEP:     273
 MODFLOW STRESS PERIOD      2     CURRENT TIME STEP:     273     ITERATIONS:      13

 -----------------------------------------------------------------------------------

   CUMULATIVE VOLUMES               L**3   RATES FOR THIS TIME STEP           L**3/T
   ------------------                      ------------------------

                                     IN                                         IN
[...]
                                    ---                                        ---
   EVAPOTRANSPIRATION =        2.9271D+08     EVAPOTRANSPIRATION =          33088.23
           STREAMFLOW =        1.7733D+08             STREAMFLOW =           6834.84
     GW BOUNDARY FLOW =        3737074.74       GW BOUNDARY FLOW =            651.14

   INFLOWS - OUTFLOWS =       -8718549.09     INFLOWS - OUTFLOWS =         -40574.21
             --------                                   --------

 TOTAL STORAGE CHANGE =       -8596509.19         STORAGE CHANGE =         -40583.49
       --------------                             --------------
         LAND SURFACE =           3577.09           LAND SURFACE =           -695.92
            SOIL ZONE =         202687.86              SOIL ZONE =         -18844.06
     UNSATURATED ZONE =        5669279.87       UNSATURATED ZONE =         -27328.85
       SATURATED ZONE =       -1.4472D+07         SATURATED ZONE =           6285.35

 OVERALL BUDGET ERROR =        -122039.90           BUDGET ERROR =              9.28


  PERCENT DISCREPANCY =             -0.03    PERCENT DISCREPANCY =              0.02



1
 SUMMARY VOLUMETRIC BUDGET FOR GSFLOW 
 DATE: 07 30 1996              CUMULATIVE TIME STEP:    5782
 MODFLOW STRESS PERIOD      2     CURRENT TIME STEP:    5782     ITERATIONS:      14

 -----------------------------------------------------------------------------------

   CUMULATIVE VOLUMES               L**3   RATES FOR THIS TIME STEP           L**3/T
   ------------------                      ------------------------

                                     IN                                         IN
                                     --                                         --
        PRECIPITATION =        4.6511D+08          PRECIPITATION =                  
           STREAMFLOW =                               STREAMFLOW =                  
     GW BOUNDARY FLOW =                         GW BOUNDARY FLOW =                  


                                    OUT                                        OUT
                                    ---                                        ---
   EVAPOTRANSPIRATION =        2.9292D+08     EVAPOTRANSPIRATION =          22784.17
           STREAMFLOW =        1.7738D+08             STREAMFLOW =           6678.23
     GW BOUNDARY FLOW =        3741630.92       GW BOUNDARY FLOW =            650.68

   INFLOWS - OUTFLOWS =       -8933314.88     INFLOWS - OUTFLOWS =         -30113.08
             --------                                   --------

 TOTAL STORAGE CHANGE =       -8811354.90         STORAGE CHANGE =         -30128.56
       --------------                             --------------
         LAND SURFACE =            384.94           LAND SURFACE =           -304.03
            SOIL ZONE =         136987.43              SOIL ZONE =          -9100.57
     UNSATURATED ZONE =        5484246.88       UNSATURATED ZONE =         -26062.19
       SATURATED ZONE =       -1.4433D+07         SATURATED ZONE =           5338.24

 OVERALL BUDGET ERROR =        -121959.97           BUDGET ERROR =             15.49


  PERCENT DISCREPANCY =             -0.03    PERCENT DISCREPANCY =              0.05



1
 SUMMARY VOLUMETRIC BUDGET FOR GSFLOW 
 DATE: 08 06 1996              CUMULATIVE TIME STEP:    5789
 MODFLOW STRESS PERIOD      2     CURRENT TIME STEP:    5789     ITERATIONS:      14

 -----------------------------------------------------------------------------------

   CUMULATIVE VOLUMES               L**3   RATES FOR THIS TIME STEP           L**3/T
   ------------------                      ------------------------

                                     IN                                         IN
                                     --                                         --
        PRECIPITATION =        4.6511D+08          PRECIPITATION =                  
           STREAMFLOW =                               STREAMFLOW =                  
     GW BOUNDARY FLOW =                         GW BOUNDARY FLOW =                  


                                    OUT                                        OUT
                                    ---                                        ---
   EVAPOTRANSPIRATION =        2.9304D+08     EVAPOTRANSPIRATION =          15350.97
           STREAMFLOW =        1.7743D+08             STREAMFLOW =           6484.46
     GW BOUNDARY FLOW =        3746183.92       GW BOUNDARY FLOW =            650.30

   INFLOWS - OUTFLOWS =       -9101640.52     INFLOWS - OUTFLOWS =         -22485.73
             --------                                   --------

 TOTAL STORAGE CHANGE =       -8979739.11         STORAGE CHANGE =         -22497.30
       --------------                             --------------
         LAND SURFACE =        1.1182D-08           LAND SURFACE =                  
            SOIL ZONE =         112813.84              SOIL ZONE =          -2072.78
     UNSATURATED ZONE =        5307399.47       UNSATURATED ZONE =         -24650.32
       SATURATED ZONE =       -1.4400D+07         SATURATED ZONE =           4225.80

 OVERALL BUDGET ERROR =        -121901.41           BUDGET ERROR =             11.57


  PERCENT DISCREPANCY =             -0.03    PERCENT DISCREPANCY =              0.05



1
 SUMMARY VOLUMETRIC BUDGET FOR GSFLOW 
 DATE: 08 13 1996              CUMULATIVE TIME STEP:    5796
 MODFLOW STRESS PERIOD      2     CURRENT TIME STEP:    5796     ITERATIONS:      15

 -----------------------------------------------------------------------------------

   CUMULATIVE VOLUMES               L**3   RATES FOR THIS TIME STEP           L**3/T
   ------------------                      ------------------------

                                     IN                                         IN
                                     --                                         --
        PRECIPITATION =        4.6531D+08          PRECIPITATION =          54456.73
           STREAMFLOW =                               STREAMFLOW =                  
     GW BOUNDARY FLOW =                         GW BOUNDARY FLOW =                  


                                    OUT                                        OUT
                                    ---                                        ---
   EVAPOTRANSPIRATION =        2.9319D+08     EVAPOTRANSPIRATION =          30103.43
           STREAMFLOW =        1.7748D+08             STREAMFLOW =           7668.17
     GW BOUNDARY FLOW =        3750735.91       GW BOUNDARY FLOW =            650.33

   INFLOWS - OUTFLOWS =       -9104888.86     INFLOWS - OUTFLOWS =          16034.80
             --------                                   --------

 TOTAL STORAGE CHANGE =       -8982826.78         STORAGE CHANGE =          16035.61
       --------------                             --------------
         LAND SURFACE =          34505.06           LAND SURFACE =                  
            SOIL ZONE =         216692.27              SOIL ZONE =          36045.02
     UNSATURATED ZONE =        5135953.42       UNSATURATED ZONE =         -24382.59
       SATURATED ZONE =       -1.4370D+07         SATURATED ZONE =           4373.19

 OVERALL BUDGET ERROR =        -122062.08           BUDGET ERROR =             -0.81


  PERCENT DISCREPANCY =             -0.03    PERCENT DISCREPANCY =             -0.00



1
 SUMMARY VOLUMETRIC BUDGET FOR GSFLOW 
 DATE: 08 20 1996              CUMULATIVE TIME STEP:    5803
 MODFLOW STRESS PERIOD      2     CURRENT TIME STEP:    5803     ITERATIONS:      14

 -----------------------------------------------------------------------------------

   CUMULATIVE VOLUMES               L**3   RATES FOR THIS TIME STEP           L**3/T
   ------------------                      ------------------------

                                     IN                                         IN
                                     --                                         --
        PRECIPITATION =        4.6531D+08          PRECIPITATION =                  
           STREAMFLOW =                               STREAMFLOW =                  
     GW BOUNDARY FLOW =                         GW BOUNDARY FLOW =                  


                                    OUT                                        OUT
                                    ---                                        ---
   EVAPOTRANSPIRATION =        2.9338D+08     EVAPOTRANSPIRATION =          16651.58
           STREAMFLOW =        1.7752D+08             STREAMFLOW =           6295.17
     GW BOUNDARY FLOW =        3755286.80       GW BOUNDARY FLOW =            649.97

   INFLOWS - OUTFLOWS =       -9341501.71     INFLOWS - OUTFLOWS =         -23596.72
             --------                                   --------

 TOTAL STORAGE CHANGE =       -9219474.94         STORAGE CHANGE =         -23603.71
       --------------                             --------------
         LAND SURFACE =        1.1183D-08           LAND SURFACE =                  
            SOIL ZONE =         154564.35              SOIL ZONE =          -3706.85
     UNSATURATED ZONE =        4970105.48       UNSATURATED ZONE =         -23173.50
       SATURATED ZONE =       -1.4344D+07         SATURATED ZONE =           3276.64

 OVERALL BUDGET ERROR =        -122026.77           BUDGET ERROR =              6.99


  PERCENT DISCREPANCY =             -0.03    PERCENT DISCREPANCY =              0.03



1
 SUMMARY VOLUMETRIC BUDGET FOR GSFLOW 
 DATE: 08 27 1996              CUMULATIVE TIME STEP:    5810
 MODFLOW STRESS PERIOD      2     CURRENT TIME STEP:    5810     ITERATIONS:      14

 -----------------------------------------------------------------------------------

   CUMULATIVE VOLUMES               L**3   RATES FOR THIS TIME STEP           L**3/T
   ------------------                      ------------------------

                                     IN                                         IN
                                     --                                         --
        PRECIPITATION =        4.6531D+08          PRECIPITATION =                  
           STREAMFLOW =                               STREAMFLOW =                  
     GW BOUNDARY FLOW =                         GW BOUNDARY FLOW =                  


                                    OUT                                        OUT
                                    ---                                        ---
   EVAPOTRANSPIRATION =        2.9351D+08     EVAPOTRANSPIRATION =          14650.40
           STREAMFLOW =        1.7756D+08             STREAMFLOW =           6143.67
     GW BOUNDARY FLOW =        3759835.26       GW BOUNDARY FLOW =            649.63

   INFLOWS - OUTFLOWS =       -9518433.61     INFLOWS - OUTFLOWS =         -21443.70
             --------                                   --------

 TOTAL STORAGE CHANGE =       -9396462.79         STORAGE CHANGE =         -21452.58
       --------------                             --------------
         LAND SURFACE =        1.1183D-08           LAND SURFACE =                  
            SOIL ZONE =         115884.17              SOIL ZONE =          -1794.95
     UNSATURATED ZONE =        4814813.14       UNSATURATED ZONE =         -21476.51
       SATURATED ZONE =       -1.4327D+07         SATURATED ZONE =           1818.88

 OVERALL BUDGET ERROR =        -121970.82           BUDGET ERROR =              8.88


  PERCENT DISCREPANCY =             -0.03    PERCENT DISCREPANCY =              0.04



1
 SUMMARY VOLUMETRIC BUDGET FOR GSFLOW 
 DATE: 09 03 1996              CUMULATIVE TIME STEP:    5817
 MODFLOW STRESS PERIOD      2     CURRENT TIME STEP:    5817     ITERATIONS:      15

 -----------------------------------------------------------------------------------

   CUMULATIVE VOLUMES               L**3   RATES FOR THIS TIME STEP           L**3/T
   ------------------                      ------------------------

                                     IN                                         IN
                                     --                                         --
        PRECIPITATION =        4.6531D+08          PRECIPITATION =                  
           STREAMFLOW =                               STREAMFLOW =                  
     GW BOUNDARY FLOW =                         GW BOUNDARY FLOW =                  


                                    OUT                                        OUT
                                    ---                                        ---
   EVAPOTRANSPIRATION =        2.9361D+08     EVAPOTRANSPIRATION =          12316.14
           STREAMFLOW =        1.7761D+08             STREAMFLOW =           6044.52
     GW BOUNDARY FLOW =        3764381.24       GW BOUNDARY FLOW =            649.27

   INFLOWS - OUTFLOWS =       -9664898.14     INFLOWS - OUTFLOWS =         -19009.93
             --------                                   --------

 TOTAL STORAGE CHANGE =       -9542992.00         STORAGE CHANGE =         -19021.32
       --------------                             --------------
         LAND SURFACE =        1.1183D-08           LAND SURFACE =                  
            SOIL ZONE =         106053.54              SOIL ZONE =            413.83
     UNSATURATED ZONE =        4667022.34       UNSATURATED ZONE =         -21153.67
       SATURATED ZONE =       -1.4316D+07         SATURATED ZONE =           1718.53

 OVERALL BUDGET ERROR =        -121906.14           BUDGET ERROR =             11.38


  PERCENT DISCREPANCY =             -0.03    PERCENT DISCREPANCY =              0.06



1
 SUMMARY VOLUMETRIC BUDGET FOR GSFLOW 
 DATE: 09 10 1996              CUMULATIVE TIME STEP:    5824
 MODFLOW STRESS PERIOD      2     CURRENT TIME STEP:    5824     ITERATIONS:      12

 -----------------------------------------------------------------------------------

   CUMULATIVE VOLUMES               L**3   RATES FOR THIS TIME STEP           L**3/T
   ------------------                      ------------------------

                                     IN                                         IN
                                     --                                         --
        PRECIPITATION =        4.6531D+08          PRECIPITATION =                  
           STREAMFLOW =                               STREAMFLOW =                  
     GW BOUNDARY FLOW =                         GW BOUNDARY FLOW =                  


                                    OUT                                        OUT
                                    ---                                        ---
   EVAPOTRANSPIRATION =        2.9369D+08     EVAPOTRANSPIRATION =          13330.36
           STREAMFLOW =        1.7765D+08             STREAMFLOW =           5952.84
     GW BOUNDARY FLOW =        3768924.82       GW BOUNDARY FLOW =            648.93

   INFLOWS - OUTFLOWS =       -9794113.75     INFLOWS - OUTFLOWS =         -19932.13
             --------                                   --------

 TOTAL STORAGE CHANGE =       -9672290.64         STORAGE CHANGE =         -19953.20
       --------------                             --------------
         LAND SURFACE =        1.1183D-08           LAND SURFACE =                  
            SOIL ZONE =         111943.97              SOIL ZONE =           -722.60
     UNSATURATED ZONE =        4523686.04       UNSATURATED ZONE =         -19852.35
       SATURATED ZONE =       -1.4308D+07         SATURATED ZONE =            621.75

 OVERALL BUDGET ERROR =        -121823.10           BUDGET ERROR =             21.07


  PERCENT DISCREPANCY =             -0.03    PERCENT DISCREPANCY =              0.11



1
 SUMMARY VOLUMETRIC BUDGET FOR GSFLOW 
 DATE: 09 17 1996              CUMULATIVE TIME STEP:    5831
 MODFLOW STRESS PERIOD      2     CURRENT TIME STEP:    5831     ITERATIONS:      12

 -----------------------------------------------------------------------------------

   CUMULATIVE VOLUMES               L**3   RATES FOR THIS TIME STEP           L**3/T
   ------------------                      ------------------------

                                     IN                                         IN
                                     --                                         --
        PRECIPITATION =        4.6637D+08          PRECIPITATION =                  
           STREAMFLOW =                               STREAMFLOW =                  
     GW BOUNDARY FLOW =                         GW BOUNDARY FLOW =                  


                                    OUT                                        OUT
                                    ---                                        ---
   EVAPOTRANSPIRATION =        2.9389D+08     EVAPOTRANSPIRATION =          74571.48
           STREAMFLOW =        1.7771D+08             STREAMFLOW =          10000.79
     GW BOUNDARY FLOW =        3773467.91       GW BOUNDARY FLOW =            649.36

   INFLOWS - OUTFLOWS =       -9007246.67     INFLOWS - OUTFLOWS =         -85221.64
             --------                                   --------

 TOTAL STORAGE CHANGE =       -8885275.65         STORAGE CHANGE =         -85252.14
       --------------                             --------------
         LAND SURFACE =        1.1183D-08           LAND SURFACE =         -34505.06
            SOIL ZONE =        1030478.74              SOIL ZONE =         -31708.94
     UNSATURATED ZONE =        4384521.11       UNSATURATED ZONE =         -19829.21
       SATURATED ZONE =       -1.4300D+07         SATURATED ZONE =            791.08

 OVERALL BUDGET ERROR =        -121971.02           BUDGET ERROR =             30.50


  PERCENT DISCREPANCY =             -0.03    PERCENT DISCREPANCY =              0.04



1
 SUMMARY VOLUMETRIC BUDGET FOR GSFLOW 
 DATE: 09 24 1996              CUMULATIVE TIME STEP:    5838
 MODFLOW STRESS PERIOD      2     CURRENT TIME STEP:    5838     ITERATIONS:      13

 -----------------------------------------------------------------------------------

   CUMULATIVE VOLUMES               L**3   RATES FOR THIS TIME STEP           L**3/T
   ------------------                      ------------------------

                                     IN                                         IN
                                     --                                         --
        PRECIPITATION =        4.6637D+08          PRECIPITATION =                  
           STREAMFLOW =                               STREAMFLOW =                  
     GW BOUNDARY FLOW =                         GW BOUNDARY FLOW =                  


                                    OUT                                        OUT
                                    ---                                        ---
   EVAPOTRANSPIRATION =        2.9442D+08     EVAPOTRANSPIRATION =          51661.52
           STREAMFLOW =        1.7776D+08             STREAMFLOW =           6301.59
     GW BOUNDARY FLOW =        3778009.51       GW BOUNDARY FLOW =            648.47

   INFLOWS - OUTFLOWS =       -9598697.47     INFLOWS - OUTFLOWS =         -58611.58
             --------                                   --------

 TOTAL STORAGE CHANGE =       -9476886.39         STORAGE CHANGE =         -58639.22
       --------------                             --------------
         LAND SURFACE =        1.1183D-08           LAND SURFACE =                  
            SOIL ZONE =         571509.29              SOIL ZONE =         -39781.17
     UNSATURATED ZONE =        4248883.27       UNSATURATED ZONE =         -19077.94
       SATURATED ZONE =       -1.4297D+07         SATURATED ZONE =            219.89

 OVERALL BUDGET ERROR =        -121811.08           BUDGET ERROR =             27.64


  PERCENT DISCREPANCY =             -0.03    PERCENT DISCREPANCY =              0.05



