1
 SUMMARY VOLUMETRIC BUDGET FOR GSFLOW 
 DATE: 10 07 1980              CUMULATIVE TIME STEP:       7
 MODFLOW STRESS PERIOD      2     CURRENT TIME STEP:       7     ITERATIONS:       6

 -----------------------------------------------------------------------------------

   CUMULATIVE VOLUMES               L**3   RATES FOR THIS TIME STEP           L**3/T
   ------------------                      ------------------------

                                     IN                                         IN
                                     --                                         --
        PRECIPITATION =                            PRECIPITATION =                  
           STREAMFLOW =                               STREAMFLOW =                  
     GW BOUNDARY FLOW =                         GW BOUNDARY FLOW =                  


                                    OUT                                        OUT
                                    ---                                        ---
   EVAPOTRANSPIRATION =          66594.69     EVAPOTRANSPIRATION =           9275.57
           STREAMFLOW =          42957.55             STREAMFLOW =           6065.77
     GW BOUNDARY FLOW =           4541.44       GW BOUNDARY FLOW =            648.70

   INFLOWS - OUTFLOWS =        -114093.68     INFLOWS - OUTFLOWS =         -15990.04
             --------                                   --------

 TOTAL STORAGE CHANGE =        -113638.02         STORAGE CHANGE =         -15920.50
       --------------                             --------------
         LAND SURFACE =                             LAND SURFACE =                  
            SOIL ZONE =          43922.63              SOIL ZONE =           6420.87
     UNSATURATED ZONE =        -144777.94       UNSATURATED ZONE =         -20360.52
       SATURATED ZONE =         -12782.71         SATURATED ZONE =          -1980.84

 OVERALL BUDGET ERROR =           -455.65           BUDGET ERROR =            -69.54


  PERCENT DISCREPANCY =             -0.40    PERCENT DISCREPANCY =             -0.44



1
 SUMMARY VOLUMETRIC BUDGET FOR GSFLOW 
 DATE: 10 14 1980              CUMULATIVE TIME STEP:      14
 MODFLOW STRESS PERIOD      2     CURRENT TIME STEP:      14     ITERATIONS:       6

 -----------------------------------------------------------------------------------

   CUMULATIVE VOLUMES               L**3   RATES FOR THIS TIME STEP           L**3/T
   ------------------                      ------------------------

                                     IN                                         IN
                                     --                                         --
        PRECIPITATION =         650780.39          PRECIPITATION =         164754.68
           STREAMFLOW =                               STREAMFLOW =                  
     GW BOUNDARY FLOW =                         GW BOUNDARY FLOW =                  


                                    OUT                                        OUT
                                    ---                                        ---
   EVAPOTRANSPIRATION =         162755.64     EVAPOTRANSPIRATION =          11478.24
           STREAMFLOW =          94354.91             STREAMFLOW =           7660.48
     GW BOUNDARY FLOW =           9082.95       GW BOUNDARY FLOW =            648.93

   INFLOWS - OUTFLOWS =         384586.89     INFLOWS - OUTFLOWS =         144967.03
             --------                                   --------

 TOTAL STORAGE CHANGE =         385555.20         STORAGE CHANGE =         145040.60
       --------------                             --------------
         LAND SURFACE =         183652.95           LAND SURFACE =         130477.37
            SOIL ZONE =         513852.10              SOIL ZONE =          36586.69
     UNSATURATED ZONE =        -284495.74       UNSATURATED ZONE =         -19624.10
       SATURATED ZONE =         -27454.11         SATURATED ZONE =          -2399.36

 OVERALL BUDGET ERROR =           -968.31           BUDGET ERROR =            -73.57


  PERCENT DISCREPANCY =             -0.15    PERCENT DISCREPANCY =             -0.04



1
 SUMMARY VOLUMETRIC BUDGET FOR GSFLOW 
 DATE: 10 21 1980              CUMULATIVE TIME STEP:      21
 MODFLOW STRESS PERIOD      2     CURRENT TIME STEP:      21     ITERATIONS:       6

 -----------------------------------------------------------------------------------

   CUMULATIVE VOLUMES               L**3   RATES FOR THIS TIME STEP           L**3/T
   ------------------                      ------------------------

                                     IN                                         IN
                                     --                                         --
        PRECIPITATION =         733156.23          PRECIPITATION =                  
           STREAMFLOW =                               STREAMFLOW =                  
     GW BOUNDARY FLOW =                         GW BOUNDARY FLOW =                  


                                    OUT                                        OUT
                                    ---                                        ---
   EVAPOTRANSPIRATION =         433040.35     EVAPOTRANSPIRATION =          44097.26
           STREAMFLOW =         144682.27             STREAMFLOW =           6694.98
     GW BOUNDARY FLOW =          13624.58       GW BOUNDARY FLOW =            648.71

   INFLOWS - OUTFLOWS =         141809.03     INFLOWS - OUTFLOWS =         -51440.94
             --------                                   --------

 TOTAL STORAGE CHANGE =         143286.53         STORAGE CHANGE =         -51361.36
       --------------                             --------------
         LAND SURFACE =        1.2278D-11           LAND SURFACE =                  
            SOIL ZONE =         608337.77              SOIL ZONE =         -29505.44
     UNSATURATED ZONE =        -418644.17       UNSATURATED ZONE =         -18824.97
       SATURATED ZONE =         -46407.07         SATURATED ZONE =          -3030.95

 OVERALL BUDGET ERROR =          -1477.50           BUDGET ERROR =            -79.58


  PERCENT DISCREPANCY =             -0.20    PERCENT DISCREPANCY =             -0.15



1
 SUMMARY VOLUMETRIC BUDGET FOR GSFLOW 
 DATE: 10 28 1980              CUMULATIVE TIME STEP:      28
 MODFLOW STRESS PERIOD      2     CURRENT TIME STEP:      28     ITERATIONS:       6

 -----------------------------------------------------------------------------------

   CUMULATIVE VOLUMES               L**3   RATES FOR THIS TIME STEP           L**3/T
   ------------------                      ------------------------

                                     IN                                         IN
                                     --                                         --
        PRECIPITATION =        1070899.96          PRECIPITATION =                  
           STREAMFLOW =                               STREAMFLOW =                  
     GW BOUNDARY FLOW =                         GW BOUNDARY FLOW =                  


                                    OUT                                        OUT
                                    ---                                        ---
   EVAPOTRANSPIRATION =         623844.38     EVAPOTRANSPIRATION =          24681.28
           STREAMFLOW =         197498.16             STREAMFLOW =           7778.07
     GW BOUNDARY FLOW =          18165.58       GW BOUNDARY FLOW =            648.77

   INFLOWS - OUTFLOWS =         231391.84     INFLOWS - OUTFLOWS =         -33108.12
             --------                                   --------

 TOTAL STORAGE CHANGE =         233450.61         STORAGE CHANGE =         -33021.23
       --------------                             --------------
         LAND SURFACE =          20529.76           LAND SURFACE =         -29848.59
            SOIL ZONE =         829236.13              SOIL ZONE =          18320.25
     UNSATURATED ZONE =        -547289.31       UNSATURATED ZONE =         -18004.66
       SATURATED ZONE =         -69025.97         SATURATED ZONE =          -3488.24

 OVERALL BUDGET ERROR =          -2058.77           BUDGET ERROR =            -86.89


  PERCENT DISCREPANCY =             -0.19    PERCENT DISCREPANCY =             -0.26



1
 SUMMARY VOLUMETRIC BUDGET FOR GSFLOW 
 DATE: 11 04 1980              CUMULATIVE TIME STEP:      35
 MODFLOW STRESS PERIOD      2     CURRENT TIME STEP:      35     ITERATIONS:       6

 -----------------------------------------------------------------------------------

   CUMULATIVE VOLUMES               L**3   RATES FOR THIS TIME STEP           L**3/T
   ------------------                      ------------------------

                                     IN                                         IN
                                     --                                         --
        PRECIPITATION =        1070899.96          PRECIPITATION =                  
           STREAMFLOW =                               STREAMFLOW =                  
     GW BOUNDARY FLOW =                         GW BOUNDARY FLOW =                  


                                    OUT                                        OUT
                                    ---                                        ---
   EVAPOTRANSPIRATION =         962114.31     EVAPOTRANSPIRATION =          43299.60
           STREAMFLOW =         246906.26             STREAMFLOW =           6483.59
     GW BOUNDARY FLOW =          22706.14       GW BOUNDARY FLOW =            648.56

   INFLOWS - OUTFLOWS =        -160826.75     INFLOWS - OUTFLOWS =         -50431.75
             --------                                   --------

 TOTAL STORAGE CHANGE =        -158144.72         STORAGE CHANGE =         -50337.42
       --------------                             --------------
         LAND SURFACE =                             LAND SURFACE =                  
            SOIL ZONE =         609055.66              SOIL ZONE =         -28798.05
     UNSATURATED ZONE =        -670835.95       UNSATURATED ZONE =         -17369.28
       SATURATED ZONE =         -96364.42         SATURATED ZONE =          -4170.08

 OVERALL BUDGET ERROR =          -2682.03           BUDGET ERROR =            -94.34


  PERCENT DISCREPANCY =             -0.22    PERCENT DISCREPANCY =             -0.19



1
 SUMMARY VOLUMETRIC BUDGET FOR GSFLOW 
 DATE: 11 11 1980              CUMULATIVE TIME STEP:      42
 MODFLOW STRESS PERIOD      2     CURRENT TIME STEP:      42     ITERATIONS:       8

 -----------------------------------------------------------------------------------

   CUMULATIVE VOLUMES               L**3   RATES FOR THIS TIME STEP           L**3/T
   ------------------                      ------------------------

                                     IN                                         IN
                                     --                                         --
        PRECIPITATION =        1573759.34          PRECIPITATION =         255182.10
           STREAMFLOW =                               STREAMFLOW =                  
     GW BOUNDARY FLOW =                         GW BOUNDARY FLOW =                  


                                    OUT                                        OUT
                                    ---                                        ---
   EVAPOTRANSPIRATION =        1194417.06     EVAPOTRANSPIRATION =          17062.44
           STREAMFLOW =         300437.90             STREAMFLOW =          10582.24
     GW BOUNDARY FLOW =          27246.42       GW BOUNDARY FLOW =            648.80

   INFLOWS - OUTFLOWS =          51657.96     INFLOWS - OUTFLOWS =         226888.62
             --------                                   --------

 TOTAL STORAGE CHANGE =          54936.38         STORAGE CHANGE =         226942.78
       --------------                             --------------
         LAND SURFACE =          76836.75           LAND SURFACE =          76836.75
            SOIL ZONE =         893605.40              SOIL ZONE =         170610.48
     UNSATURATED ZONE =        -789259.39       UNSATURATED ZONE =         -16444.82
       SATURATED ZONE =        -126246.38         SATURATED ZONE =          -4059.62

 OVERALL BUDGET ERROR =          -3278.43           BUDGET ERROR =            -54.17


  PERCENT DISCREPANCY =             -0.21    PERCENT DISCREPANCY =             -0.02



1
 SUMMARY VOLUMETRIC BUDGET FOR GSFLOW 
 DATE: 11 18 1980              CUMULATIVE TIME STEP:      49
 MODFLOW STRESS PERIOD      2     CURRENT TIME STEP:      49     ITERATIONS:       6

 -----------------------------------------------------------------------------------

   CUMULATIVE VOLUMES               L**3   RATES FOR THIS TIME STEP           L**3/T
   ------------------                      ------------------------

                                     IN                                         IN
                                     --                                         --
        PRECIPITATION =        1573759.34          PRECIPITATION =                  
           STREAMFLOW =                               STREAMFLOW =                  
     GW BOUNDARY FLOW =                         GW BOUNDARY FLOW =                  


                                    OUT                                        OUT
                                    ---                                        ---
   EVAPOTRANSPIRATION =        1291421.08     EVAPOTRANSPIRATION =          23198.08
           STREAMFLOW =         362262.09             STREAMFLOW =           9063.61
     GW BOUNDARY FLOW =          31788.16       GW BOUNDARY FLOW =            648.84

   INFLOWS - OUTFLOWS =        -111712.00     INFLOWS - OUTFLOWS =         -32910.53
             --------                                   --------

 TOTAL STORAGE CHANGE =        -107845.64         STORAGE CHANGE =         -32813.71
       --------------                             --------------
         LAND SURFACE =           5215.64           LAND SURFACE =          -7688.79
            SOIL ZONE =         948895.63              SOIL ZONE =          -4294.62
     UNSATURATED ZONE =        -903060.64       UNSATURATED ZONE =         -16024.42
       SATURATED ZONE =        -158896.27         SATURATED ZONE =          -4805.89

 OVERALL BUDGET ERROR =          -3866.36           BUDGET ERROR =            -96.81


  PERCENT DISCREPANCY =             -0.23    PERCENT DISCREPANCY =             -0.29



1
 SUMMARY VOLUMETRIC BUDGET FOR GSFLOW 
 DATE: 11 25 1980              CUMULATIVE TIME STEP:      56
 MODFLOW STRESS PERIOD      2     CURRENT TIME STEP:      56     ITERATIONS:       7

 -----------------------------------------------------------------------------------

   CUMULATIVE VOLUMES               L**3   RATES FOR THIS TIME STEP           L**3/T
   ------------------                      ------------------------

                                     IN                                         IN
                                     --                                         --
        PRECIPITATION =        1648813.76          PRECIPITATION =                  
           STREAMFLOW =                               STREAMFLOW =                  
     GW BOUNDARY FLOW =                         GW BOUNDARY FLOW =                  


                                    OUT                                        OUT
                                    ---                                        ---
   EVAPOTRANSPIRATION =        1380692.90     EVAPOTRANSPIRATION =           9280.00
           STREAMFLOW =         424747.73             STREAMFLOW =           9118.77
     GW BOUNDARY FLOW =          36329.99       GW BOUNDARY FLOW =            648.84

   INFLOWS - OUTFLOWS =        -192956.86     INFLOWS - OUTFLOWS =         -19047.61
             --------                                   --------

 TOTAL STORAGE CHANGE =        -188466.29         STORAGE CHANGE =         -18975.27
       --------------                             --------------
         LAND SURFACE =          53010.44           LAND SURFACE =          -9260.11
            SOIL ZONE =         966727.07              SOIL ZONE =          11140.74
     UNSATURATED ZONE =       -1012720.25       UNSATURATED ZONE =         -15406.33
       SATURATED ZONE =        -195483.55         SATURATED ZONE =          -5449.58

 OVERALL BUDGET ERROR =          -4490.58           BUDGET ERROR =            -72.34


  PERCENT DISCREPANCY =             -0.24    PERCENT DISCREPANCY =             -0.38



1
 SUMMARY VOLUMETRIC BUDGET FOR GSFLOW 
 DATE: 12 02 1980              CUMULATIVE TIME STEP:      63
 MODFLOW STRESS PERIOD      2     CURRENT TIME STEP:      63     ITERATIONS:       7

 -----------------------------------------------------------------------------------

   CUMULATIVE VOLUMES               L**3   RATES FOR THIS TIME STEP           L**3/T
   ------------------                      ------------------------

                                     IN                                         IN
                                     --                                         --
        PRECIPITATION =        2076620.74          PRECIPITATION =                  
           STREAMFLOW =                               STREAMFLOW =                  
     GW BOUNDARY FLOW =                         GW BOUNDARY FLOW =                  


                                    OUT                                        OUT
                                    ---                                        ---
   EVAPOTRANSPIRATION =        1591427.66     EVAPOTRANSPIRATION =          35186.81
           STREAMFLOW =         499229.77             STREAMFLOW =          13024.92
     GW BOUNDARY FLOW =          40872.80       GW BOUNDARY FLOW =            649.21

   INFLOWS - OUTFLOWS =         -54909.50     INFLOWS - OUTFLOWS =         -48860.94
             --------                                   --------

 TOTAL STORAGE CHANGE =         -49836.44         STORAGE CHANGE =         -48792.47
       --------------                             --------------
         LAND SURFACE =         139393.91           LAND SURFACE =         -82011.98
            SOIL ZONE =        1159317.02              SOIL ZONE =          51684.72
     UNSATURATED ZONE =       -1115403.92       UNSATURATED ZONE =         -13516.00
       SATURATED ZONE =        -233143.45         SATURATED ZONE =          -4949.20

 OVERALL BUDGET ERROR =          -5073.05           BUDGET ERROR =            -68.47


  PERCENT DISCREPANCY =             -0.24    PERCENT DISCREPANCY =             -0.14



1
 SUMMARY VOLUMETRIC BUDGET FOR GSFLOW 
 DATE: 12 09 1980              CUMULATIVE TIME STEP:      70
 MODFLOW STRESS PERIOD      2     CURRENT TIME STEP:      70     ITERATIONS:       7

 -----------------------------------------------------------------------------------

   CUMULATIVE VOLUMES               L**3   RATES FOR THIS TIME STEP           L**3/T
   ------------------                      ------------------------

                                     IN                                         IN
                                     --                                         --
        PRECIPITATION =        4284363.13          PRECIPITATION =                  
           STREAMFLOW =                               STREAMFLOW =                  
     GW BOUNDARY FLOW =                         GW BOUNDARY FLOW =                  


                                    OUT                                        OUT
                                    ---                                        ---
   EVAPOTRANSPIRATION =        1617983.16     EVAPOTRANSPIRATION =           4180.71
           STREAMFLOW =         584771.44             STREAMFLOW =          12675.55
     GW BOUNDARY FLOW =          45418.06       GW BOUNDARY FLOW =            649.42

   INFLOWS - OUTFLOWS =        2036190.47     INFLOWS - OUTFLOWS =         -17505.68
             --------                                   --------

 TOTAL STORAGE CHANGE =        2041756.18         STORAGE CHANGE =         -17435.88
       --------------                             --------------
         LAND SURFACE =        2318916.46           LAND SURFACE =          -4180.71
            SOIL ZONE =        1210270.13              SOIL ZONE =           6919.76
     UNSATURATED ZONE =       -1214557.19       UNSATURATED ZONE =         -14241.23
       SATURATED ZONE =        -272873.22         SATURATED ZONE =          -5933.70

 OVERALL BUDGET ERROR =          -5565.71           BUDGET ERROR =            -69.80


  PERCENT DISCREPANCY =             -0.13    PERCENT DISCREPANCY =             -0.40



1
 SUMMARY VOLUMETRIC BUDGET FOR GSFLOW 
 DATE: 12 16 1980              CUMULATIVE TIME STEP:      77
 MODFLOW STRESS PERIOD      2     CURRENT TIME STEP:      77     ITERATIONS:       7

 -----------------------------------------------------------------------------------

   CUMULATIVE VOLUMES               L**3   RATES FOR THIS TIME STEP           L**3/T
   ------------------                      ------------------------

                                     IN                                         IN
                                     --                                         --
        PRECIPITATION =        4284363.13          PRECIPITATION =                  
           STREAMFLOW =                               STREAMFLOW =                  
     GW BOUNDARY FLOW =                         GW BOUNDARY FLOW =                  


                                    OUT                                        OUT
                                    ---                                        ---
   EVAPOTRANSPIRATION =        1769330.16     EVAPOTRANSPIRATION =          35234.27
           STREAMFLOW =         692761.63             STREAMFLOW =          23248.61
     GW BOUNDARY FLOW =          49965.10       GW BOUNDARY FLOW =            650.04

   INFLOWS - OUTFLOWS =        1772306.24     INFLOWS - OUTFLOWS =         -59132.92
             --------                                   --------

 TOTAL STORAGE CHANGE =        1778373.22         STORAGE CHANGE =         -59063.66
       --------------                             --------------
         LAND SURFACE =        1970555.29           LAND SURFACE =        -143309.03
            SOIL ZONE =        1426252.52              SOIL ZONE =          98214.64
     UNSATURATED ZONE =       -1305192.97       UNSATURATED ZONE =          -9466.96
       SATURATED ZONE =        -313241.62         SATURATED ZONE =          -4502.31

 OVERALL BUDGET ERROR =          -6066.99           BUDGET ERROR =            -69.26


  PERCENT DISCREPANCY =             -0.14    PERCENT DISCREPANCY =             -0.12



1
 SUMMARY VOLUMETRIC BUDGET FOR GSFLOW 
 DATE: 12 23 1980              CUMULATIVE TIME STEP:      84
 MODFLOW STRESS PERIOD      2     CURRENT TIME STEP:      84     ITERATIONS:      10

 -----------------------------------------------------------------------------------

   CUMULATIVE VOLUMES               L**3   RATES FOR THIS TIME STEP           L**3/T
   ------------------                      ------------------------

                                     IN                                         IN
                                     --                                         --
        PRECIPITATION =        4516755.31          PRECIPITATION =                  
           STREAMFLOW =                               STREAMFLOW =                  
     GW BOUNDARY FLOW =                         GW BOUNDARY FLOW =                  


                                    OUT                                        OUT
                                    ---                                        ---
   EVAPOTRANSPIRATION =        1976039.67     EVAPOTRANSPIRATION =          34941.33
           STREAMFLOW =         923523.17             STREAMFLOW =          31435.13
     GW BOUNDARY FLOW =          54525.37       GW BOUNDARY FLOW =            652.02

   INFLOWS - OUTFLOWS =        1562667.10     INFLOWS - OUTFLOWS =         -67028.48
             --------                                   --------

 TOTAL STORAGE CHANGE =        1569052.52         STORAGE CHANGE =         -66992.51
       --------------                             --------------
         LAND SURFACE =        1267318.57           LAND SURFACE =         -58300.36
            SOIL ZONE =        1991902.07              SOIL ZONE =           1726.66
     UNSATURATED ZONE =       -1349506.14       UNSATURATED ZONE =          -6015.73
       SATURATED ZONE =        -340661.98         SATURATED ZONE =          -4403.08

 OVERALL BUDGET ERROR =          -6385.42           BUDGET ERROR =            -35.98


  PERCENT DISCREPANCY =             -0.14    PERCENT DISCREPANCY =             -0.05



1
 SUMMARY VOLUMETRIC BUDGET FOR GSFLOW 
 DATE: 12 30 1980              CUMULATIVE TIME STEP:      91
 MODFLOW STRESS PERIOD      2     CURRENT TIME STEP:      91     ITERATIONS:      10

 -----------------------------------------------------------------------------------

   CUMULATIVE VOLUMES               L**3   RATES FOR THIS TIME STEP           L**3/T
   ------------------                      ------------------------

                                     IN                                         IN
                                     --                                         --
        PRECIPITATION =        4516755.31          PRECIPITATION =                  
           STREAMFLOW =                               STREAMFLOW =                  
     GW BOUNDARY FLOW =                         GW BOUNDARY FLOW =                  


                                    OUT                                        OUT
                                    ---                                        ---
   EVAPOTRANSPIRATION =        2315793.26     EVAPOTRANSPIRATION =          45044.53
           STREAMFLOW =        1176915.14             STREAMFLOW =          27376.92
     GW BOUNDARY FLOW =          59093.11       GW BOUNDARY FLOW =            652.55

   INFLOWS - OUTFLOWS =         964953.81     INFLOWS - OUTFLOWS =         -73074.00
             --------                                   --------

 TOTAL STORAGE CHANGE =         971530.32         STORAGE CHANGE =         -73048.17
       --------------                             --------------
         LAND SURFACE =         438434.58           LAND SURFACE =         -38610.25
            SOIL ZONE =        2249509.32              SOIL ZONE =         -27438.34
     UNSATURATED ZONE =       -1351334.10       UNSATURATED ZONE =          -2775.09
       SATURATED ZONE =        -365079.48         SATURATED ZONE =          -4224.50

 OVERALL BUDGET ERROR =          -6576.51           BUDGET ERROR =            -25.83


  PERCENT DISCREPANCY =             -0.15    PERCENT DISCREPANCY =             -0.04



1
 SUMMARY VOLUMETRIC BUDGET FOR GSFLOW 
 DATE: 01 06 1981              CUMULATIVE TIME STEP:      98
 MODFLOW STRESS PERIOD      2     CURRENT TIME STEP:      98     ITERATIONS:       8

 -----------------------------------------------------------------------------------

   CUMULATIVE VOLUMES               L**3   RATES FOR THIS TIME STEP           L**3/T
   ------------------                      ------------------------

                                     IN                                         IN
                                     --                                         --
        PRECIPITATION =        5004445.82          PRECIPITATION =                  
           STREAMFLOW =                               STREAMFLOW =                  
     GW BOUNDARY FLOW =                         GW BOUNDARY FLOW =                  


                                    OUT                                        OUT
                                    ---                                        ---
   EVAPOTRANSPIRATION =        2535018.51     EVAPOTRANSPIRATION =          21276.29
           STREAMFLOW =        1322456.64             STREAMFLOW =          19824.25
     GW BOUNDARY FLOW =          63653.84       GW BOUNDARY FLOW =            651.05

   INFLOWS - OUTFLOWS =        1083316.83     INFLOWS - OUTFLOWS =         -41751.59
             --------                                   --------

 TOTAL STORAGE CHANGE =        1090083.99         STORAGE CHANGE =         -41718.86
       --------------                             --------------
         LAND SURFACE =         696137.84           LAND SURFACE =         -29111.22
            SOIL ZONE =        2218049.43              SOIL ZONE =           4756.96
     UNSATURATED ZONE =       -1420876.38       UNSATURATED ZONE =         -11487.66
       SATURATED ZONE =        -403226.90         SATURATED ZONE =          -5876.94

 OVERALL BUDGET ERROR =          -6767.17           BUDGET ERROR =            -32.74


  PERCENT DISCREPANCY =             -0.14    PERCENT DISCREPANCY =             -0.08



1
 SUMMARY VOLUMETRIC BUDGET FOR GSFLOW 
 DATE: 01 13 1981              CUMULATIVE TIME STEP:     105
 MODFLOW STRESS PERIOD      2     CURRENT TIME STEP:     105     ITERATIONS:       7

 -----------------------------------------------------------------------------------

   CUMULATIVE VOLUMES               L**3   RATES FOR THIS TIME STEP           L**3/T
   ------------------                      ------------------------

                                     IN                                         IN
                                     --                                         --
        PRECIPITATION =        5004445.82          PRECIPITATION =                  
           STREAMFLOW =                               STREAMFLOW =                  
     GW BOUNDARY FLOW =                         GW BOUNDARY FLOW =                  


                                    OUT                                        OUT
                                    ---                                        ---
   EVAPOTRANSPIRATION =        2741308.15     EVAPOTRANSPIRATION =          42968.09
           STREAMFLOW =        1473193.65             STREAMFLOW =          20510.20
     GW BOUNDARY FLOW =          68210.66       GW BOUNDARY FLOW =            650.87

   INFLOWS - OUTFLOWS =         721733.36     INFLOWS - OUTFLOWS =         -64129.16
             --------                                   --------

 TOTAL STORAGE CHANGE =         728866.21         STORAGE CHANGE =         -64069.71
       --------------                             --------------
         LAND SURFACE =         435494.09           LAND SURFACE =         -38054.76
            SOIL ZONE =        2216295.60              SOIL ZONE =         -12510.83
     UNSATURATED ZONE =       -1477289.81       UNSATURATED ZONE =          -7133.99
       SATURATED ZONE =        -445633.67         SATURATED ZONE =          -6370.13

 OVERALL BUDGET ERROR =          -7132.85           BUDGET ERROR =            -59.45


  PERCENT DISCREPANCY =             -0.14    PERCENT DISCREPANCY =             -0.09



1
 SUMMARY VOLUMETRIC BUDGET FOR GSFLOW 
 DATE: 01 20 1981              CUMULATIVE TIME STEP:     112
 MODFLOW STRESS PERIOD      2     CURRENT TIME STEP:     112     ITERATIONS:       8

 -----------------------------------------------------------------------------------

   CUMULATIVE VOLUMES               L**3   RATES FOR THIS TIME STEP           L**3/T
   ------------------                      ------------------------

                                     IN                                         IN
                                     --                                         --
        PRECIPITATION =        5170468.48          PRECIPITATION =          41503.16
           STREAMFLOW =                               STREAMFLOW =                  
     GW BOUNDARY FLOW =                         GW BOUNDARY FLOW =                  


                                    OUT                                        OUT
                                    ---                                        ---
   EVAPOTRANSPIRATION =        3042235.51     EVAPOTRANSPIRATION =          55567.63
           STREAMFLOW =        1606393.63             STREAMFLOW =          18361.99
     GW BOUNDARY FLOW =          72764.79       GW BOUNDARY FLOW =            650.47

   INFLOWS - OUTFLOWS =         449074.55     INFLOWS - OUTFLOWS =         -33076.92
             --------                                   --------

 TOTAL STORAGE CHANGE =         456572.91         STORAGE CHANGE =         -33035.15
       --------------                             --------------
         LAND SURFACE =         308030.66           LAND SURFACE =           9184.29
            SOIL ZONE =        2146361.77              SOIL ZONE =         -33851.99
     UNSATURATED ZONE =       -1505100.10       UNSATURATED ZONE =          -1432.81
       SATURATED ZONE =        -492719.42         SATURATED ZONE =          -6934.63

 OVERALL BUDGET ERROR =          -7498.36           BUDGET ERROR =            -41.78


  PERCENT DISCREPANCY =             -0.14    PERCENT DISCREPANCY =             -0.06



1
 SUMMARY VOLUMETRIC BUDGET FOR GSFLOW 
 DATE: 01 27 1981              CUMULATIVE TIME STEP:     119
 MODFLOW STRESS PERIOD      2     CURRENT TIME STEP:     119     ITERATIONS:       8

 -----------------------------------------------------------------------------------

   CUMULATIVE VOLUMES               L**3   RATES FOR THIS TIME STEP           L**3/T
   ------------------                      ------------------------

                                     IN                                         IN
                                     --                                         --
        PRECIPITATION =        8646542.90          PRECIPITATION =        2936504.96
           STREAMFLOW =                               STREAMFLOW =                  
     GW BOUNDARY FLOW =                         GW BOUNDARY FLOW =                  


                                    OUT                                        OUT
                                    ---                                        ---
   EVAPOTRANSPIRATION =        3270062.19     EVAPOTRANSPIRATION =          12593.32
           STREAMFLOW =        1732648.97             STREAMFLOW =          17391.79
     GW BOUNDARY FLOW =          77317.10       GW BOUNDARY FLOW =            650.23

   INFLOWS - OUTFLOWS =        3566514.64     INFLOWS - OUTFLOWS =        2905869.62
             --------                                   --------

 TOTAL STORAGE CHANGE =        3574287.83         STORAGE CHANGE =        2905909.54
       --------------                             --------------
         LAND SURFACE =        3474306.65           LAND SURFACE =        2923911.72
            SOIL ZONE =        2164989.33              SOIL ZONE =          -3491.25
     UNSATURATED ZONE =       -1523954.42       UNSATURATED ZONE =          -7174.19
       SATURATED ZONE =        -541053.73         SATURATED ZONE =          -7336.74

 OVERALL BUDGET ERROR =          -7773.18           BUDGET ERROR =            -39.92


  PERCENT DISCREPANCY =             -0.09    PERCENT DISCREPANCY =             -0.00



1
 SUMMARY VOLUMETRIC BUDGET FOR GSFLOW 
 DATE: 02 03 1981              CUMULATIVE TIME STEP:     126
 MODFLOW STRESS PERIOD      2     CURRENT TIME STEP:     126     ITERATIONS:       8

 -----------------------------------------------------------------------------------

   CUMULATIVE VOLUMES               L**3   RATES FOR THIS TIME STEP           L**3/T
   ------------------                      ------------------------

                                     IN                                         IN
                                     --                                         --
        PRECIPITATION =        1.1739D+07          PRECIPITATION =                  
           STREAMFLOW =                               STREAMFLOW =                  
     GW BOUNDARY FLOW =                         GW BOUNDARY FLOW =                  


                                    OUT                                        OUT
                                    ---                                        ---
   EVAPOTRANSPIRATION =        3307410.67     EVAPOTRANSPIRATION =           8130.85
           STREAMFLOW =        1854906.85             STREAMFLOW =          17648.73
     GW BOUNDARY FLOW =          81868.41       GW BOUNDARY FLOW =            650.19

   INFLOWS - OUTFLOWS =        6494511.84     INFLOWS - OUTFLOWS =         -26429.78
             --------                                   --------

 TOTAL STORAGE CHANGE =        6502597.27         STORAGE CHANGE =         -26385.69
       --------------                             --------------
         LAND SURFACE =        6529113.05           LAND SURFACE =          -8130.85
            SOIL ZONE =        2165485.59              SOIL ZONE =            956.98
     UNSATURATED ZONE =       -1596885.94       UNSATURATED ZONE =         -11242.05
       SATURATED ZONE =        -595115.44         SATURATED ZONE =          -7969.76

 OVERALL BUDGET ERROR =          -8085.43           BUDGET ERROR =            -44.09


  PERCENT DISCREPANCY =             -0.07    PERCENT DISCREPANCY =             -0.17



1
 SUMMARY VOLUMETRIC BUDGET FOR GSFLOW 
 DATE: 02 10 1981              CUMULATIVE TIME STEP:     133
 MODFLOW STRESS PERIOD      2     CURRENT TIME STEP:     133     ITERATIONS:       7

 -----------------------------------------------------------------------------------

   CUMULATIVE VOLUMES               L**3   RATES FOR THIS TIME STEP           L**3/T
   ------------------                      ------------------------

                                     IN                                         IN
                                     --                                         --
        PRECIPITATION =        1.1838D+07          PRECIPITATION =                  
           STREAMFLOW =                               STREAMFLOW =                  
     GW BOUNDARY FLOW =                         GW BOUNDARY FLOW =                  


                                    OUT                                        OUT
                                    ---                                        ---
   EVAPOTRANSPIRATION =        3441216.50     EVAPOTRANSPIRATION =          34657.17
           STREAMFLOW =        1979639.16             STREAMFLOW =          17896.02
     GW BOUNDARY FLOW =          86419.90       GW BOUNDARY FLOW =            650.21

   INFLOWS - OUTFLOWS =        6330987.67     INFLOWS - OUTFLOWS =         -53203.41
             --------                                   --------

 TOTAL STORAGE CHANGE =        6339432.82         STORAGE CHANGE =         -53134.96
       --------------                             --------------
         LAND SURFACE =        6494872.68           LAND SURFACE =         -34657.17
            SOIL ZONE =        2171262.03              SOIL ZONE =            721.21
     UNSATURATED ZONE =       -1673599.07       UNSATURATED ZONE =         -10708.40
       SATURATED ZONE =        -653102.81         SATURATED ZONE =          -8490.59

 OVERALL BUDGET ERROR =          -8445.15           BUDGET ERROR =            -68.45


  PERCENT DISCREPANCY =             -0.07    PERCENT DISCREPANCY =             -0.13



1
 SUMMARY VOLUMETRIC BUDGET FOR GSFLOW 
 DATE: 02 17 1981              CUMULATIVE TIME STEP:     140
 MODFLOW STRESS PERIOD      2     CURRENT TIME STEP:     140     ITERATIONS:      14

 -----------------------------------------------------------------------------------

   CUMULATIVE VOLUMES               L**3   RATES FOR THIS TIME STEP           L**3/T
   ------------------                      ------------------------

                                     IN                                         IN
                                     --                                         --
        PRECIPITATION =        1.2765D+07          PRECIPITATION =          68928.68
           STREAMFLOW =                               STREAMFLOW =                  
     GW BOUNDARY FLOW =                         GW BOUNDARY FLOW =                  


                                    OUT                                        OUT
                                    ---                                        ---
   EVAPOTRANSPIRATION =        3785029.72     EVAPOTRANSPIRATION =          68409.61
           STREAMFLOW =        2507308.42             STREAMFLOW =         125775.24
     GW BOUNDARY FLOW =          90992.87       GW BOUNDARY FLOW =            656.76

   INFLOWS - OUTFLOWS =        6381649.66     INFLOWS - OUTFLOWS =        -125912.93
             --------                                   --------

 TOTAL STORAGE CHANGE =        6390366.64         STORAGE CHANGE =        -125903.43
       --------------                             --------------
         LAND SURFACE =        5530156.78           LAND SURFACE =        -290038.68
            SOIL ZONE =        2964796.61              SOIL ZONE =          82082.36
     UNSATURATED ZONE =       -1432418.88       UNSATURATED ZONE =          79944.74
       SATURATED ZONE =        -672167.87         SATURATED ZONE =           2108.16

 OVERALL BUDGET ERROR =          -8716.98           BUDGET ERROR =             -9.51


  PERCENT DISCREPANCY =             -0.07    PERCENT DISCREPANCY =             -0.00



1
 SUMMARY VOLUMETRIC BUDGET FOR GSFLOW 
 DATE: 02 24 1981              CUMULATIVE TIME STEP:     147
 MODFLOW STRESS PERIOD      2     CURRENT TIME STEP:     147     ITERATIONS:      14

 -----------------------------------------------------------------------------------

   CUMULATIVE VOLUMES               L**3   RATES FOR THIS TIME STEP           L**3/T
   ------------------                      ------------------------

                                     IN                                         IN
                                     --                                         --
        PRECIPITATION =        1.3179D+07          PRECIPITATION =         344647.71
           STREAMFLOW =                               STREAMFLOW =                  
     GW BOUNDARY FLOW =                         GW BOUNDARY FLOW =                  


                                    OUT                                        OUT
                                    ---                                        ---
   EVAPOTRANSPIRATION =        4135458.35     EVAPOTRANSPIRATION =          19832.91
           STREAMFLOW =        3104556.28             STREAMFLOW =          54482.72
     GW BOUNDARY FLOW =          95588.71       GW BOUNDARY FLOW =            655.61

   INFLOWS - OUTFLOWS =        5842955.12     INFLOWS - OUTFLOWS =         269676.47
             --------                                   --------

 TOTAL STORAGE CHANGE =        5851628.71         STORAGE CHANGE =         269670.80
       --------------                             --------------
         LAND SURFACE =        4823543.67           LAND SURFACE =         299390.95
            SOIL ZONE =        2719323.80              SOIL ZONE =         -64547.63
     UNSATURATED ZONE =       -1043366.41       UNSATURATED ZONE =          31674.93
       SATURATED ZONE =        -647872.35         SATURATED ZONE =           3152.54

 OVERALL BUDGET ERROR =          -8673.59           BUDGET ERROR =              5.67


  PERCENT DISCREPANCY =             -0.07    PERCENT DISCREPANCY =              0.00



1
 SUMMARY VOLUMETRIC BUDGET FOR GSFLOW 
 DATE: 03 03 1981              CUMULATIVE TIME STEP:     154
 MODFLOW STRESS PERIOD      2     CURRENT TIME STEP:     154     ITERATIONS:      11

 -----------------------------------------------------------------------------------

   CUMULATIVE VOLUMES               L**3   RATES FOR THIS TIME STEP           L**3/T
   ------------------                      ------------------------

                                     IN                                         IN
                                     --                                         --
        PRECIPITATION =        1.3447D+07          PRECIPITATION =                  
           STREAMFLOW =                               STREAMFLOW =                  
     GW BOUNDARY FLOW =                         GW BOUNDARY FLOW =                  


                                    OUT                                        OUT
                                    ---                                        ---
   EVAPOTRANSPIRATION =        4298081.45     EVAPOTRANSPIRATION =          44519.47
           STREAMFLOW =        3333967.15             STREAMFLOW =          27940.90
     GW BOUNDARY FLOW =         100162.92       GW BOUNDARY FLOW =            652.39

   INFLOWS - OUTFLOWS =        5714407.27     INFLOWS - OUTFLOWS =         -73112.76
             --------                                   --------

 TOTAL STORAGE CHANGE =        5722965.32         STORAGE CHANGE =         -73129.90
       --------------                             --------------
         LAND SURFACE =        4906662.72           LAND SURFACE =         -64972.25
            SOIL ZONE =        2491682.82              SOIL ZONE =           1802.06
     UNSATURATED ZONE =       -1026029.63       UNSATURATED ZONE =          -8257.51
       SATURATED ZONE =        -649350.58         SATURATED ZONE =          -1702.20

 OVERALL BUDGET ERROR =          -8558.05           BUDGET ERROR =             17.14


  PERCENT DISCREPANCY =             -0.06    PERCENT DISCREPANCY =              0.02



1
 SUMMARY VOLUMETRIC BUDGET FOR GSFLOW 
 DATE: 03 10 1981              CUMULATIVE TIME STEP:     161
 MODFLOW STRESS PERIOD      2     CURRENT TIME STEP:     161     ITERATIONS:      12

 -----------------------------------------------------------------------------------

   CUMULATIVE VOLUMES               L**3   RATES FOR THIS TIME STEP           L**3/T
   ------------------                      ------------------------

                                     IN                                         IN
                                     --                                         --
        PRECIPITATION =        1.3493D+07          PRECIPITATION =                  
           STREAMFLOW =                               STREAMFLOW =                  
     GW BOUNDARY FLOW =                         GW BOUNDARY FLOW =                  


                                    OUT                                        OUT
                                    ---                                        ---
   EVAPOTRANSPIRATION =        4615780.98     EVAPOTRANSPIRATION =          63481.90
           STREAMFLOW =        3578292.35             STREAMFLOW =          45983.23
     GW BOUNDARY FLOW =         104729.81       GW BOUNDARY FLOW =            653.13

   INFLOWS - OUTFLOWS =        5194151.37     INFLOWS - OUTFLOWS =        -110118.26
             --------                                   --------

 TOTAL STORAGE CHANGE =        5202666.82         STORAGE CHANGE =        -110121.88
       --------------                             --------------
         LAND SURFACE =        4219548.52           LAND SURFACE =        -168545.35
            SOIL ZONE =        2626394.53              SOIL ZONE =          34352.23
     UNSATURATED ZONE =        -984971.23       UNSATURATED ZONE =          23839.57
       SATURATED ZONE =        -658305.01         SATURATED ZONE =            231.67

 OVERALL BUDGET ERROR =          -8515.44           BUDGET ERROR =              3.62


  PERCENT DISCREPANCY =             -0.06    PERCENT DISCREPANCY =              0.00



1
 SUMMARY VOLUMETRIC BUDGET FOR GSFLOW 
 DATE: 03 17 1981              CUMULATIVE TIME STEP:     168
 MODFLOW STRESS PERIOD      2     CURRENT TIME STEP:     168     ITERATIONS:      10

 -----------------------------------------------------------------------------------

   CUMULATIVE VOLUMES               L**3   RATES FOR THIS TIME STEP           L**3/T
   ------------------                      ------------------------

                                     IN                                         IN
                                     --                                         --
        PRECIPITATION =        1.3745D+07          PRECIPITATION =                  
           STREAMFLOW =                               STREAMFLOW =                  
     GW BOUNDARY FLOW =                         GW BOUNDARY FLOW =                  


                                    OUT                                        OUT
                                    ---                                        ---
   EVAPOTRANSPIRATION =        4972323.65     EVAPOTRANSPIRATION =          39557.19
           STREAMFLOW =        3817250.87             STREAMFLOW =          24388.03
     GW BOUNDARY FLOW =         109298.86       GW BOUNDARY FLOW =            652.10

   INFLOWS - OUTFLOWS =        4845629.44     INFLOWS - OUTFLOWS =         -64597.32
             --------                                   --------

 TOTAL STORAGE CHANGE =        4854090.62         STORAGE CHANGE =         -64595.27
       --------------                             --------------
         LAND SURFACE =        4030462.74           LAND SURFACE =         -39213.10
            SOIL ZONE =        2445516.27              SOIL ZONE =          -6035.73
     UNSATURATED ZONE =        -951519.04       UNSATURATED ZONE =         -15475.75
       SATURATED ZONE =        -670369.35         SATURATED ZONE =          -3870.69

 OVERALL BUDGET ERROR =          -8461.18           BUDGET ERROR =             -2.06


  PERCENT DISCREPANCY =             -0.06    PERCENT DISCREPANCY =             -0.00



1
 SUMMARY VOLUMETRIC BUDGET FOR GSFLOW 
 DATE: 03 24 1981              CUMULATIVE TIME STEP:     175
 MODFLOW STRESS PERIOD      2     CURRENT TIME STEP:     175     ITERATIONS:      10

 -----------------------------------------------------------------------------------

   CUMULATIVE VOLUMES               L**3   RATES FOR THIS TIME STEP           L**3/T
   ------------------                      ------------------------

                                     IN                                         IN
                                     --                                         --
        PRECIPITATION =        1.4367D+07          PRECIPITATION =                  
           STREAMFLOW =                               STREAMFLOW =                  
     GW BOUNDARY FLOW =                         GW BOUNDARY FLOW =                  


                                    OUT                                        OUT
                                    ---                                        ---
   EVAPOTRANSPIRATION =        5325396.09     EVAPOTRANSPIRATION =          85696.82
           STREAMFLOW =        3991251.76             STREAMFLOW =          27858.86
     GW BOUNDARY FLOW =         113859.70       GW BOUNDARY FLOW =            651.50

   INFLOWS - OUTFLOWS =        4936248.68     INFLOWS - OUTFLOWS =        -114207.17
             --------                                   --------

 TOTAL STORAGE CHANGE =        4944739.88         STORAGE CHANGE =        -114200.72
       --------------                             --------------
         LAND SURFACE =        4326207.86           LAND SURFACE =         -79733.73
            SOIL ZONE =        2348684.19              SOIL ZONE =         -26494.63
     UNSATURATED ZONE =       -1028542.96       UNSATURATED ZONE =          -3522.64
       SATURATED ZONE =        -701609.22         SATURATED ZONE =          -4449.72

 OVERALL BUDGET ERROR =          -8491.20           BUDGET ERROR =             -6.45


  PERCENT DISCREPANCY =             -0.06    PERCENT DISCREPANCY =             -0.01



1
 SUMMARY VOLUMETRIC BUDGET FOR GSFLOW 
 DATE: 03 31 1981              CUMULATIVE TIME STEP:     182
 MODFLOW STRESS PERIOD      2     CURRENT TIME STEP:     182     ITERATIONS:      12

 -----------------------------------------------------------------------------------

   CUMULATIVE VOLUMES               L**3   RATES FOR THIS TIME STEP           L**3/T
   ------------------                      ------------------------

                                     IN                                         IN
                                     --                                         --
        PRECIPITATION =        1.5777D+07          PRECIPITATION =                  
           STREAMFLOW =                               STREAMFLOW =                  
     GW BOUNDARY FLOW =                         GW BOUNDARY FLOW =                  


                                    OUT                                        OUT
                                    ---                                        ---
   EVAPOTRANSPIRATION =        5750905.44     EVAPOTRANSPIRATION =          55421.24
           STREAMFLOW =        4478375.55             STREAMFLOW =          36318.29
     GW BOUNDARY FLOW =         118440.68       GW BOUNDARY FLOW =            653.44

   INFLOWS - OUTFLOWS =        5429044.51     INFLOWS - OUTFLOWS =         -92392.96
             --------                                   --------

 TOTAL STORAGE CHANGE =        5437485.97         STORAGE CHANGE =         -92414.17
       --------------                             --------------
         LAND SURFACE =        4430213.53           LAND SURFACE =         -58575.72
            SOIL ZONE =        2529051.21              SOIL ZONE =         -34988.72
     UNSATURATED ZONE =        -826779.54       UNSATURATED ZONE =           1956.37
       SATURATED ZONE =        -694999.22         SATURATED ZONE =           -806.10

 OVERALL BUDGET ERROR =          -8441.46           BUDGET ERROR =             21.21


  PERCENT DISCREPANCY =             -0.05    PERCENT DISCREPANCY =              0.02



1
 SUMMARY VOLUMETRIC BUDGET FOR GSFLOW 
 DATE: 04 07 1981              CUMULATIVE TIME STEP:     189
 MODFLOW STRESS PERIOD      2     CURRENT TIME STEP:     189     ITERATIONS:      10

 -----------------------------------------------------------------------------------

   CUMULATIVE VOLUMES               L**3   RATES FOR THIS TIME STEP           L**3/T
   ------------------                      ------------------------

                                     IN                                         IN
                                     --                                         --
        PRECIPITATION =        1.6121D+07          PRECIPITATION =                  
           STREAMFLOW =                               STREAMFLOW =                  
     GW BOUNDARY FLOW =                         GW BOUNDARY FLOW =                  


                                    OUT                                        OUT
                                    ---                                        ---
   EVAPOTRANSPIRATION =        6396510.03     EVAPOTRANSPIRATION =         106275.95
           STREAMFLOW =        4806718.52             STREAMFLOW =          44610.63
     GW BOUNDARY FLOW =         123017.01       GW BOUNDARY FLOW =            653.91

   INFLOWS - OUTFLOWS =        4795237.59     INFLOWS - OUTFLOWS =        -151540.49
             --------                                   --------

 TOTAL STORAGE CHANGE =        4803578.00         STORAGE CHANGE =        -151565.97
       --------------                             --------------
         LAND SURFACE =        3770149.32           LAND SURFACE =        -142696.88
            SOIL ZONE =        2470108.14              SOIL ZONE =         -20972.88
     UNSATURATED ZONE =        -747986.81       UNSATURATED ZONE =          11174.83
       SATURATED ZONE =        -688692.64         SATURATED ZONE =            928.97

 OVERALL BUDGET ERROR =          -8340.42           BUDGET ERROR =             25.49


  PERCENT DISCREPANCY =             -0.05    PERCENT DISCREPANCY =              0.02



1
 SUMMARY VOLUMETRIC BUDGET FOR GSFLOW 
 DATE: 04 14 1981              CUMULATIVE TIME STEP:     196
 MODFLOW STRESS PERIOD      2     CURRENT TIME STEP:     196     ITERATIONS:      13

 -----------------------------------------------------------------------------------

   CUMULATIVE VOLUMES               L**3   RATES FOR THIS TIME STEP           L**3/T
   ------------------                      ------------------------

                                     IN                                         IN
                                     --                                         --
        PRECIPITATION =        1.6121D+07          PRECIPITATION =                  
           STREAMFLOW =                               STREAMFLOW =                  
     GW BOUNDARY FLOW =                         GW BOUNDARY FLOW =                  


                                    OUT                                        OUT
                                    ---                                        ---
   EVAPOTRANSPIRATION =        7323541.08     EVAPOTRANSPIRATION =         190847.08
           STREAMFLOW =        5127957.58             STREAMFLOW =          52796.58
     GW BOUNDARY FLOW =         127592.08       GW BOUNDARY FLOW =            653.40

   INFLOWS - OUTFLOWS =        3542392.40     INFLOWS - OUTFLOWS =        -244297.06
             --------                                   --------

 TOTAL STORAGE CHANGE =        3550589.11         STORAGE CHANGE =        -244303.96
       --------------                             --------------
         LAND SURFACE =        2533622.54           LAND SURFACE =        -245074.27
            SOIL ZONE =        2359316.90              SOIL ZONE =         -19337.99
     UNSATURATED ZONE =        -663006.59       UNSATURATED ZONE =          17723.90
       SATURATED ZONE =        -679343.73         SATURATED ZONE =           2384.39

 OVERALL BUDGET ERROR =          -8196.71           BUDGET ERROR =              6.90


  PERCENT DISCREPANCY =             -0.05    PERCENT DISCREPANCY =              0.00



1
 SUMMARY VOLUMETRIC BUDGET FOR GSFLOW 
 DATE: 04 21 1981              CUMULATIVE TIME STEP:     203
 MODFLOW STRESS PERIOD      2     CURRENT TIME STEP:     203     ITERATIONS:      12

 -----------------------------------------------------------------------------------

   CUMULATIVE VOLUMES               L**3   RATES FOR THIS TIME STEP           L**3/T
   ------------------                      ------------------------

                                     IN                                         IN
                                     --                                         --
        PRECIPITATION =        1.6310D+07          PRECIPITATION =                  
           STREAMFLOW =                               STREAMFLOW =                  
     GW BOUNDARY FLOW =                         GW BOUNDARY FLOW =                  


                                    OUT                                        OUT
                                    ---                                        ---
   EVAPOTRANSPIRATION =        8388311.37     EVAPOTRANSPIRATION =         152035.95
           STREAMFLOW =        5448063.21             STREAMFLOW =          42694.62
     GW BOUNDARY FLOW =         132161.39       GW BOUNDARY FLOW =            652.32

   INFLOWS - OUTFLOWS =        2341721.45     INFLOWS - OUTFLOWS =        -195382.89
             --------                                   --------

 TOTAL STORAGE CHANGE =        2349803.64         STORAGE CHANGE =        -195407.98
       --------------                             --------------
         LAND SURFACE =        1382759.14           LAND SURFACE =        -116398.10
            SOIL ZONE =        2187500.11              SOIL ZONE =         -95477.35
     UNSATURATED ZONE =        -559263.83       UNSATURATED ZONE =          13771.84
       SATURATED ZONE =        -661191.78         SATURATED ZONE =           2695.63

 OVERALL BUDGET ERROR =          -8082.19           BUDGET ERROR =             25.09


  PERCENT DISCREPANCY =             -0.05    PERCENT DISCREPANCY =              0.01



1
 SUMMARY VOLUMETRIC BUDGET FOR GSFLOW 
 DATE: 04 28 1981              CUMULATIVE TIME STEP:     210
 MODFLOW STRESS PERIOD      2     CURRENT TIME STEP:     210     ITERATIONS:      13

 -----------------------------------------------------------------------------------

   CUMULATIVE VOLUMES               L**3   RATES FOR THIS TIME STEP           L**3/T
   ------------------                      ------------------------

                                     IN                                         IN
                                     --                                         --
        PRECIPITATION =        1.6515D+07          PRECIPITATION =                  
           STREAMFLOW =                               STREAMFLOW =                  
     GW BOUNDARY FLOW =                         GW BOUNDARY FLOW =                  


                                    OUT                                        OUT
                                    ---                                        ---
   EVAPOTRANSPIRATION =        9623264.99     EVAPOTRANSPIRATION =         200042.72
           STREAMFLOW =        5636982.31             STREAMFLOW =          21166.18
     GW BOUNDARY FLOW =         136718.57       GW BOUNDARY FLOW =            650.14

   INFLOWS - OUTFLOWS =        1118481.08     INFLOWS - OUTFLOWS =        -221859.05
             --------                                   --------

 TOTAL STORAGE CHANGE =        1126444.13         STORAGE CHANGE =        -221873.01
       --------------                             --------------
         LAND SURFACE =         690085.78           LAND SURFACE =         -77405.14
            SOIL ZONE =        1668447.04              SOIL ZONE =        -136895.21
     UNSATURATED ZONE =        -571078.17       UNSATURATED ZONE =          -6637.60
       SATURATED ZONE =        -661010.52         SATURATED ZONE =           -935.06

 OVERALL BUDGET ERROR =          -7963.05           BUDGET ERROR =             13.96


  PERCENT DISCREPANCY =             -0.05    PERCENT DISCREPANCY =              0.01



1
 SUMMARY VOLUMETRIC BUDGET FOR GSFLOW 
 DATE: 05 05 1981              CUMULATIVE TIME STEP:     217
 MODFLOW STRESS PERIOD      2     CURRENT TIME STEP:     217     ITERATIONS:      14

 -----------------------------------------------------------------------------------

   CUMULATIVE VOLUMES               L**3   RATES FOR THIS TIME STEP           L**3/T
   ------------------                      ------------------------

                                     IN                                         IN
                                     --                                         --
        PRECIPITATION =        1.6515D+07          PRECIPITATION =                  
           STREAMFLOW =                               STREAMFLOW =                  
     GW BOUNDARY FLOW =                         GW BOUNDARY FLOW =                  


                                    OUT                                        OUT
                                    ---                                        ---
   EVAPOTRANSPIRATION =        1.0502D+07     EVAPOTRANSPIRATION =          54091.23
           STREAMFLOW =        5727052.92             STREAMFLOW =           9740.47
     GW BOUNDARY FLOW =         141262.87       GW BOUNDARY FLOW =            648.59

   INFLOWS - OUTFLOWS =         144673.97     INFLOWS - OUTFLOWS =         -64480.29
             --------                                   --------

 TOTAL STORAGE CHANGE =         152601.11         STORAGE CHANGE =         -64486.33
       --------------                             --------------
         LAND SURFACE =         365362.79           LAND SURFACE =         -17027.84
            SOIL ZONE =        1135997.64              SOIL ZONE =         -28026.43
     UNSATURATED ZONE =        -671086.04       UNSATURATED ZONE =         -16404.15
       SATURATED ZONE =        -677673.28         SATURATED ZONE =          -3027.92

 OVERALL BUDGET ERROR =          -7927.14           BUDGET ERROR =              6.04


  PERCENT DISCREPANCY =             -0.05    PERCENT DISCREPANCY =              0.01



1
 SUMMARY VOLUMETRIC BUDGET FOR GSFLOW 
 DATE: 05 12 1981              CUMULATIVE TIME STEP:     224
 MODFLOW STRESS PERIOD      2     CURRENT TIME STEP:     224     ITERATIONS:      11

 -----------------------------------------------------------------------------------

   CUMULATIVE VOLUMES               L**3   RATES FOR THIS TIME STEP           L**3/T
   ------------------                      ------------------------

                                     IN                                         IN
                                     --                                         --
        PRECIPITATION =        1.6515D+07          PRECIPITATION =                  
           STREAMFLOW =                               STREAMFLOW =                  
     GW BOUNDARY FLOW =                         GW BOUNDARY FLOW =                  


                                    OUT                                        OUT
                                    ---                                        ---
   EVAPOTRANSPIRATION =        1.1008D+07     EVAPOTRANSPIRATION =          88058.09
           STREAMFLOW =        5792950.09             STREAMFLOW =           9928.28
     GW BOUNDARY FLOW =         145800.63       GW BOUNDARY FLOW =            648.13

   INFLOWS - OUTFLOWS =        -431225.26     INFLOWS - OUTFLOWS =         -98634.49
             --------                                   --------

 TOTAL STORAGE CHANGE =        -423322.46         STORAGE CHANGE =         -98636.54
       --------------                             --------------
         LAND SURFACE =         218598.62           LAND SURFACE =         -26482.39
            SOIL ZONE =         843772.21              SOIL ZONE =         -53339.26
     UNSATURATED ZONE =        -776221.99       UNSATURATED ZONE =         -13144.48
       SATURATED ZONE =        -709471.30         SATURATED ZONE =          -5670.41

 OVERALL BUDGET ERROR =          -7902.80           BUDGET ERROR =              2.05


  PERCENT DISCREPANCY =             -0.05    PERCENT DISCREPANCY =              0.00



1
 SUMMARY VOLUMETRIC BUDGET FOR GSFLOW 
 DATE: 05 19 1981              CUMULATIVE TIME STEP:     231
 MODFLOW STRESS PERIOD      2     CURRENT TIME STEP:     231     ITERATIONS:      16

 -----------------------------------------------------------------------------------

   CUMULATIVE VOLUMES               L**3   RATES FOR THIS TIME STEP           L**3/T
   ------------------                      ------------------------

                                     IN                                         IN
                                     --                                         --
        PRECIPITATION =        1.7837D+07          PRECIPITATION =         169047.83
           STREAMFLOW =                               STREAMFLOW =                  
     GW BOUNDARY FLOW =                         GW BOUNDARY FLOW =                  


                                    OUT                                        OUT
                                    ---                                        ---
   EVAPOTRANSPIRATION =        1.1410D+07     EVAPOTRANSPIRATION =          34209.10
           STREAMFLOW =        5910553.11             STREAMFLOW =          21497.09
     GW BOUNDARY FLOW =         150339.40       GW BOUNDARY FLOW =            649.25

   INFLOWS - OUTFLOWS =         365814.81     INFLOWS - OUTFLOWS =         112692.39
             --------                                   --------

 TOTAL STORAGE CHANGE =         373737.53         STORAGE CHANGE =         112691.94
       --------------                             --------------
         LAND SURFACE =         191992.06           LAND SURFACE =          21271.39
            SOIL ZONE =        1778090.24              SOIL ZONE =         100176.91
     UNSATURATED ZONE =        -844406.56       UNSATURATED ZONE =          -2218.89
       SATURATED ZONE =        -751938.20         SATURATED ZONE =          -6537.47

 OVERALL BUDGET ERROR =          -7922.73           BUDGET ERROR =              0.45


  PERCENT DISCREPANCY =             -0.04    PERCENT DISCREPANCY =              0.00



1
 SUMMARY VOLUMETRIC BUDGET FOR GSFLOW 
 DATE: 05 26 1981              CUMULATIVE TIME STEP:     238
 MODFLOW STRESS PERIOD      2     CURRENT TIME STEP:     238     ITERATIONS:      15

 -----------------------------------------------------------------------------------

   CUMULATIVE VOLUMES               L**3   RATES FOR THIS TIME STEP           L**3/T
   ------------------                      ------------------------

                                     IN                                         IN
                                     --                                         --
        PRECIPITATION =        1.8252D+07          PRECIPITATION =         284301.98
           STREAMFLOW =                               STREAMFLOW =                  
     GW BOUNDARY FLOW =                         GW BOUNDARY FLOW =                  


                                    OUT                                        OUT
                                    ---                                        ---
   EVAPOTRANSPIRATION =        1.2318D+07     EVAPOTRANSPIRATION =         145738.35
           STREAMFLOW =        6006280.66             STREAMFLOW =          17323.56
     GW BOUNDARY FLOW =         154878.92       GW BOUNDARY FLOW =            648.31

   INFLOWS - OUTFLOWS =        -226998.98     INFLOWS - OUTFLOWS =         120591.76
             --------                                   --------

 TOTAL STORAGE CHANGE =        -219053.05         STORAGE CHANGE =         120594.08
       --------------                             --------------
         LAND SURFACE =         117179.89           LAND SURFACE =          -7332.13
            SOIL ZONE =        1375974.20              SOIL ZONE =         145518.03
     UNSATURATED ZONE =        -910559.83       UNSATURATED ZONE =         -10989.07
       SATURATED ZONE =        -801647.32         SATURATED ZONE =          -6602.75

 OVERALL BUDGET ERROR =          -7945.93           BUDGET ERROR =             -2.31


  PERCENT DISCREPANCY =             -0.04    PERCENT DISCREPANCY =             -0.00



1
 SUMMARY VOLUMETRIC BUDGET FOR GSFLOW 
 DATE: 06 02 1981              CUMULATIVE TIME STEP:     245
 MODFLOW STRESS PERIOD      2     CURRENT TIME STEP:     245     ITERATIONS:      12

 -----------------------------------------------------------------------------------

   CUMULATIVE VOLUMES               L**3   RATES FOR THIS TIME STEP           L**3/T
   ------------------                      ------------------------

                                     IN                                         IN
                                     --                                         --
        PRECIPITATION =        1.8318D+07          PRECIPITATION =          50867.39
           STREAMFLOW =                               STREAMFLOW =                  
     GW BOUNDARY FLOW =                         GW BOUNDARY FLOW =                  


                                    OUT                                        OUT
                                    ---                                        ---
   EVAPOTRANSPIRATION =        1.3097D+07     EVAPOTRANSPIRATION =          74467.02
           STREAMFLOW =        6068696.14             STREAMFLOW =           7293.84
     GW BOUNDARY FLOW =         159413.14       GW BOUNDARY FLOW =            647.37

   INFLOWS - OUTFLOWS =       -1006479.74     INFLOWS - OUTFLOWS =         -31540.84
             --------                                   --------

 TOTAL STORAGE CHANGE =        -998487.84         STORAGE CHANGE =         -31528.41
       --------------                             --------------
         LAND SURFACE =          73951.28           LAND SURFACE =          28943.96
            SOIL ZONE =         783002.70              SOIL ZONE =         -38929.18
     UNSATURATED ZONE =        -996522.41       UNSATURATED ZONE =         -12940.58
       SATURATED ZONE =        -858919.42         SATURATED ZONE =          -8602.63

 OVERALL BUDGET ERROR =          -7991.89           BUDGET ERROR =            -12.42


  PERCENT DISCREPANCY =             -0.04    PERCENT DISCREPANCY =             -0.02



1
 SUMMARY VOLUMETRIC BUDGET FOR GSFLOW 
 DATE: 06 09 1981              CUMULATIVE TIME STEP:     252
 MODFLOW STRESS PERIOD      2     CURRENT TIME STEP:     252     ITERATIONS:      15

 -----------------------------------------------------------------------------------

   CUMULATIVE VOLUMES               L**3   RATES FOR THIS TIME STEP           L**3/T
   ------------------                      ------------------------

                                     IN                                         IN
                                     --                                         --
        PRECIPITATION =        1.8318D+07          PRECIPITATION =                  
           STREAMFLOW =                               STREAMFLOW =                  
     GW BOUNDARY FLOW =                         GW BOUNDARY FLOW =                  


                                    OUT                                        OUT
                                    ---                                        ---
   EVAPOTRANSPIRATION =        1.3570D+07     EVAPOTRANSPIRATION =          51611.35
           STREAMFLOW =        6114483.25             STREAMFLOW =           6241.33
     GW BOUNDARY FLOW =         163942.93       GW BOUNDARY FLOW =            646.97

   INFLOWS - OUTFLOWS =       -1530401.92     INFLOWS - OUTFLOWS =         -58499.66
             --------                                   --------

 TOTAL STORAGE CHANGE =       -1522342.04         STORAGE CHANGE =         -58497.09
       --------------                             --------------
         LAND SURFACE =          12540.44           LAND SURFACE =          -2884.10
            SOIL ZONE =         474688.32              SOIL ZONE =         -33524.08
     UNSATURATED ZONE =       -1086666.69       UNSATURATED ZONE =         -12682.64
       SATURATED ZONE =        -922904.12         SATURATED ZONE =          -9406.27

 OVERALL BUDGET ERROR =          -8059.88           BUDGET ERROR =             -2.57


  PERCENT DISCREPANCY =             -0.04    PERCENT DISCREPANCY =             -0.00



1
 SUMMARY VOLUMETRIC BUDGET FOR GSFLOW 
 DATE: 06 16 1981              CUMULATIVE TIME STEP:     259
 MODFLOW STRESS PERIOD      2     CURRENT TIME STEP:     259     ITERATIONS:      13

 -----------------------------------------------------------------------------------

   CUMULATIVE VOLUMES               L**3   RATES FOR THIS TIME STEP           L**3/T
   ------------------                      ------------------------

                                     IN                                         IN
                                     --                                         --
        PRECIPITATION =        1.8318D+07          PRECIPITATION =                  
           STREAMFLOW =                               STREAMFLOW =                  
     GW BOUNDARY FLOW =                         GW BOUNDARY FLOW =                  


                                    OUT                                        OUT
                                    ---                                        ---
   EVAPOTRANSPIRATION =        1.3758D+07     EVAPOTRANSPIRATION =          42098.23
           STREAMFLOW =        6157193.71             STREAMFLOW =           6039.45
     GW BOUNDARY FLOW =         168470.92       GW BOUNDARY FLOW =            646.78

   INFLOWS - OUTFLOWS =       -1765362.42     INFLOWS - OUTFLOWS =         -48784.46
             --------                                   --------

 TOTAL STORAGE CHANGE =       -1757284.10         STORAGE CHANGE =         -48776.44
       --------------                             --------------
         LAND SURFACE =           5667.47           LAND SURFACE =          -1251.09
            SOIL ZONE =         399973.04              SOIL ZONE =         -25751.35
     UNSATURATED ZONE =       -1173973.24       UNSATURATED ZONE =         -12227.40
       SATURATED ZONE =        -988951.37         SATURATED ZONE =          -9546.59

 OVERALL BUDGET ERROR =          -8078.32           BUDGET ERROR =             -8.02


  PERCENT DISCREPANCY =             -0.04    PERCENT DISCREPANCY =             -0.02



1
 SUMMARY VOLUMETRIC BUDGET FOR GSFLOW 
 DATE: 06 23 1981              CUMULATIVE TIME STEP:     266
 MODFLOW STRESS PERIOD      2     CURRENT TIME STEP:     266     ITERATIONS:      10

 -----------------------------------------------------------------------------------

   CUMULATIVE VOLUMES               L**3   RATES FOR THIS TIME STEP           L**3/T
   ------------------                      ------------------------

                                     IN                                         IN
                                     --                                         --
        PRECIPITATION =        1.8318D+07          PRECIPITATION =                  
           STREAMFLOW =                               STREAMFLOW =                  
     GW BOUNDARY FLOW =                         GW BOUNDARY FLOW =                  


                                    OUT                                        OUT
                                    ---                                        ---
   EVAPOTRANSPIRATION =        1.4034D+07     EVAPOTRANSPIRATION =          32990.21
           STREAMFLOW =        6198927.60             STREAMFLOW =           5911.67
     GW BOUNDARY FLOW =         172998.83       GW BOUNDARY FLOW =            647.14

   INFLOWS - OUTFLOWS =       -2087793.00     INFLOWS - OUTFLOWS =         -39549.02
             --------                                   --------

 TOTAL STORAGE CHANGE =       -2079672.28         STORAGE CHANGE =         -39540.38
       --------------                             --------------
         LAND SURFACE =       -3.6380D-11           LAND SURFACE =                  
            SOIL ZONE =         234565.37              SOIL ZONE =         -18043.30
     UNSATURATED ZONE =       -1256084.34       UNSATURATED ZONE =         -11298.21
       SATURATED ZONE =       -1058153.30         SATURATED ZONE =         -10198.88

 OVERALL BUDGET ERROR =          -8120.72           BUDGET ERROR =             -8.64


  PERCENT DISCREPANCY =             -0.04    PERCENT DISCREPANCY =             -0.02



1
 SUMMARY VOLUMETRIC BUDGET FOR GSFLOW 
 DATE: 06 30 1981              CUMULATIVE TIME STEP:     273
 MODFLOW STRESS PERIOD      2     CURRENT TIME STEP:     273     ITERATIONS:      12

 -----------------------------------------------------------------------------------

   CUMULATIVE VOLUMES               L**3   RATES FOR THIS TIME STEP           L**3/T
   ------------------                      ------------------------

                                     IN                                         IN
[...]
                                    ---                                        ---
   EVAPOTRANSPIRATION =        2.9256D+08     EVAPOTRANSPIRATION =          33827.79
           STREAMFLOW =        1.7741D+08             STREAMFLOW =           6838.94
     GW BOUNDARY FLOW =        3737909.62       GW BOUNDARY FLOW =            651.27

   INFLOWS - OUTFLOWS =       -8648701.24     INFLOWS - OUTFLOWS =         -41318.00
             --------                                   --------

 TOTAL STORAGE CHANGE =       -8528600.65         STORAGE CHANGE =         -41325.97
       --------------                             --------------
         LAND SURFACE =           3411.74           LAND SURFACE =           -684.13
            SOIL ZONE =         200260.79              SOIL ZONE =         -19574.22
     UNSATURATED ZONE =        5621558.53       UNSATURATED ZONE =         -27202.87
       SATURATED ZONE =       -1.4354D+07         SATURATED ZONE =           6135.26

 OVERALL BUDGET ERROR =        -120100.59           BUDGET ERROR =              7.96


  PERCENT DISCREPANCY =             -0.03    PERCENT DISCREPANCY =              0.02



1
 SUMMARY VOLUMETRIC BUDGET FOR GSFLOW 
 DATE: 07 30 1996              CUMULATIVE TIME STEP:    5782
 MODFLOW STRESS PERIOD      2     CURRENT TIME STEP:    5782     ITERATIONS:      14

 -----------------------------------------------------------------------------------

   CUMULATIVE VOLUMES               L**3   RATES FOR THIS TIME STEP           L**3/T
   ------------------                      ------------------------

                                     IN                                         IN
                                     --                                         --
        PRECIPITATION =        4.6511D+08          PRECIPITATION =                  
           STREAMFLOW =                               STREAMFLOW =                  
     GW BOUNDARY FLOW =                         GW BOUNDARY FLOW =                  


                                    OUT                                        OUT
                                    ---                                        ---
   EVAPOTRANSPIRATION =        2.9277D+08     EVAPOTRANSPIRATION =          22705.36
           STREAMFLOW =        1.7746D+08             STREAMFLOW =           6688.21
     GW BOUNDARY FLOW =        3742466.67       GW BOUNDARY FLOW =            650.80

   INFLOWS - OUTFLOWS =       -8862597.51     INFLOWS - OUTFLOWS =         -30044.37
             --------                                   --------

 TOTAL STORAGE CHANGE =       -8742586.50         STORAGE CHANGE =         -30065.95
       --------------                             --------------
         LAND SURFACE =            302.76           LAND SURFACE =           -298.47
            SOIL ZONE =         135557.07              SOIL ZONE =          -9006.81
     UNSATURATED ZONE =        5436506.58       UNSATURATED ZONE =         -26154.44
       SATURATED ZONE =       -1.4315D+07         SATURATED ZONE =           5393.77

 OVERALL BUDGET ERROR =        -120011.01           BUDGET ERROR =             21.58


  PERCENT DISCREPANCY =             -0.03    PERCENT DISCREPANCY =              0.07



1
 SUMMARY VOLUMETRIC BUDGET FOR GSFLOW 
 DATE: 08 06 1996              CUMULATIVE TIME STEP:    5789
 MODFLOW STRESS PERIOD      2     CURRENT TIME STEP:    5789     ITERATIONS:      15

 -----------------------------------------------------------------------------------

   CUMULATIVE VOLUMES               L**3   RATES FOR THIS TIME STEP           L**3/T
   ------------------                      ------------------------

                                     IN                                         IN
                                     --                                         --
        PRECIPITATION =        4.6511D+08          PRECIPITATION =                  
           STREAMFLOW =                               STREAMFLOW =                  
     GW BOUNDARY FLOW =                         GW BOUNDARY FLOW =                  


                                    OUT                                        OUT
                                    ---                                        ---
   EVAPOTRANSPIRATION =        2.9289D+08     EVAPOTRANSPIRATION =          15008.77
           STREAMFLOW =        1.7750D+08             STREAMFLOW =           6495.95
     GW BOUNDARY FLOW =        3747020.67       GW BOUNDARY FLOW =            650.49

   INFLOWS - OUTFLOWS =       -9030135.61     INFLOWS - OUTFLOWS =         -22155.22
             --------                                   --------

 TOTAL STORAGE CHANGE =       -8910196.54         STORAGE CHANGE =         -22166.07
       --------------                             --------------
         LAND SURFACE =       -7.2054D-09           LAND SURFACE =                  
            SOIL ZONE =         112316.60              SOIL ZONE =          -1708.47
     UNSATURATED ZONE =        5259697.68       UNSATURATED ZONE =         -24743.31
       SATURATED ZONE =       -1.4282D+07         SATURATED ZONE =           4285.71

 OVERALL BUDGET ERROR =        -119939.07           BUDGET ERROR =             10.85


  PERCENT DISCREPANCY =             -0.03    PERCENT DISCREPANCY =              0.05



1
 SUMMARY VOLUMETRIC BUDGET FOR GSFLOW 
 DATE: 08 13 1996              CUMULATIVE TIME STEP:    5796
 MODFLOW STRESS PERIOD      2     CURRENT TIME STEP:    5796     ITERATIONS:      15

 -----------------------------------------------------------------------------------

   CUMULATIVE VOLUMES               L**3   RATES FOR THIS TIME STEP           L**3/T
   ------------------                      ------------------------

                                     IN                                         IN
                                     --                                         --
        PRECIPITATION =        4.6531D+08          PRECIPITATION =          54456.73
           STREAMFLOW =                               STREAMFLOW =                  
     GW BOUNDARY FLOW =                         GW BOUNDARY FLOW =                  


                                    OUT                                        OUT
                                    ---                                        ---
   EVAPOTRANSPIRATION =        2.9304D+08     EVAPOTRANSPIRATION =          29497.25
           STREAMFLOW =        1.7755D+08             STREAMFLOW =           7676.16
     GW BOUNDARY FLOW =        3751573.80       GW BOUNDARY FLOW =            650.48

   INFLOWS - OUTFLOWS =       -9033220.13     INFLOWS - OUTFLOWS =          16632.84
             --------                                   --------

 TOTAL STORAGE CHANGE =       -8913340.98         STORAGE CHANGE =          16619.70
       --------------                             --------------
         LAND SURFACE =          34505.06           LAND SURFACE =                  
            SOIL ZONE =         216361.40              SOIL ZONE =          36674.10
     UNSATURATED ZONE =        5088240.21       UNSATURATED ZONE =         -24397.65
       SATURATED ZONE =       -1.4252D+07         SATURATED ZONE =           4343.25

 OVERALL BUDGET ERROR =        -119879.15           BUDGET ERROR =             13.14


  PERCENT DISCREPANCY =             -0.03    PERCENT DISCREPANCY =              0.02



1
 SUMMARY VOLUMETRIC BUDGET FOR GSFLOW 
 DATE: 08 20 1996              CUMULATIVE TIME STEP:    5803
 MODFLOW STRESS PERIOD      2     CURRENT TIME STEP:    5803     ITERATIONS:      14

 -----------------------------------------------------------------------------------

   CUMULATIVE VOLUMES               L**3   RATES FOR THIS TIME STEP           L**3/T
   ------------------                      ------------------------

                                     IN                                         IN
                                     --                                         --
        PRECIPITATION =        4.6531D+08          PRECIPITATION =                  
           STREAMFLOW =                               STREAMFLOW =                  
     GW BOUNDARY FLOW =                         GW BOUNDARY FLOW =                  


                                    OUT                                        OUT
                                    ---                                        ---
   EVAPOTRANSPIRATION =        2.9323D+08     EVAPOTRANSPIRATION =          16669.46
           STREAMFLOW =        1.7760D+08             STREAMFLOW =           6301.25
     GW BOUNDARY FLOW =        3756125.57       GW BOUNDARY FLOW =            650.09

   INFLOWS - OUTFLOWS =       -9269706.87     INFLOWS - OUTFLOWS =         -23620.81
             --------                                   --------

 TOTAL STORAGE CHANGE =       -9149882.54         STORAGE CHANGE =         -23632.77
       --------------                             --------------
         LAND SURFACE =       -7.2032D-09           LAND SURFACE =                  
            SOIL ZONE =         154555.08              SOIL ZONE =          -3701.77
     UNSATURATED ZONE =        4923079.42       UNSATURATED ZONE =         -22968.48
       SATURATED ZONE =       -1.4228D+07         SATURATED ZONE =           3037.48

 OVERALL BUDGET ERROR =        -119824.33           BUDGET ERROR =             11.97


  PERCENT DISCREPANCY =             -0.03    PERCENT DISCREPANCY =              0.05



1
 SUMMARY VOLUMETRIC BUDGET FOR GSFLOW 
 DATE: 08 27 1996              CUMULATIVE TIME STEP:    5810
 MODFLOW STRESS PERIOD      2     CURRENT TIME STEP:    5810     ITERATIONS:      14

 -----------------------------------------------------------------------------------

   CUMULATIVE VOLUMES               L**3   RATES FOR THIS TIME STEP           L**3/T
   ------------------                      ------------------------

                                     IN                                         IN
                                     --                                         --
        PRECIPITATION =        4.6531D+08          PRECIPITATION =                  
           STREAMFLOW =                               STREAMFLOW =                  
     GW BOUNDARY FLOW =                         GW BOUNDARY FLOW =                  


                                    OUT                                        OUT
                                    ---                                        ---
   EVAPOTRANSPIRATION =        2.9336D+08     EVAPOTRANSPIRATION =          14668.65
           STREAMFLOW =        1.7764D+08             STREAMFLOW =           6152.57
     GW BOUNDARY FLOW =        3760674.76       GW BOUNDARY FLOW =            649.74

   INFLOWS - OUTFLOWS =       -9446647.63     INFLOWS - OUTFLOWS =         -21470.96
             --------                                   --------

 TOTAL STORAGE CHANGE =       -9326885.35         STORAGE CHANGE =         -21491.22
       --------------                             --------------
         LAND SURFACE =       -7.2032D-09           LAND SURFACE =                  
            SOIL ZONE =         116085.52              SOIL ZONE =          -1789.35
     UNSATURATED ZONE =        4768428.06       UNSATURATED ZONE =         -21548.31
       SATURATED ZONE =       -1.4211D+07         SATURATED ZONE =           1846.44

 OVERALL BUDGET ERROR =        -119762.28           BUDGET ERROR =             20.26


  PERCENT DISCREPANCY =             -0.03    PERCENT DISCREPANCY =              0.09



1
 SUMMARY VOLUMETRIC BUDGET FOR GSFLOW 
 DATE: 09 03 1996              CUMULATIVE TIME STEP:    5817
 MODFLOW STRESS PERIOD      2     CURRENT TIME STEP:    5817     ITERATIONS:      14

 -----------------------------------------------------------------------------------

   CUMULATIVE VOLUMES               L**3   RATES FOR THIS TIME STEP           L**3/T
   ------------------                      ------------------------

                                     IN                                         IN
                                     --                                         --
        PRECIPITATION =        4.6531D+08          PRECIPITATION =                  
           STREAMFLOW =                               STREAMFLOW =                  
     GW BOUNDARY FLOW =                         GW BOUNDARY FLOW =                  


                                    OUT                                        OUT
                                    ---                                        ---
   EVAPOTRANSPIRATION =        2.9346D+08     EVAPOTRANSPIRATION =          13801.62
           STREAMFLOW =        1.7768D+08             STREAMFLOW =           6052.75
     GW BOUNDARY FLOW =        3765221.45       GW BOUNDARY FLOW =            649.38

   INFLOWS - OUTFLOWS =       -9594793.62     INFLOWS - OUTFLOWS =         -20503.76
             --------                                   --------

 TOTAL STORAGE CHANGE =       -9475097.11         STORAGE CHANGE =         -20514.93
       --------------                             --------------
         LAND SURFACE =       -7.2032D-09           LAND SURFACE =                  
            SOIL ZONE =         104802.14              SOIL ZONE =          -1047.84
     UNSATURATED ZONE =        4619909.72       UNSATURATED ZONE =         -21029.03
       SATURATED ZONE =       -1.4200D+07         SATURATED ZONE =           1561.94

 OVERALL BUDGET ERROR =        -119696.51           BUDGET ERROR =             11.17


  PERCENT DISCREPANCY =             -0.03    PERCENT DISCREPANCY =              0.05



1
 SUMMARY VOLUMETRIC BUDGET FOR GSFLOW 
 DATE: 09 10 1996              CUMULATIVE TIME STEP:    5824
 MODFLOW STRESS PERIOD      2     CURRENT TIME STEP:    5824     ITERATIONS:      13

 -----------------------------------------------------------------------------------

   CUMULATIVE VOLUMES               L**3   RATES FOR THIS TIME STEP           L**3/T
   ------------------                      ------------------------

                                     IN                                         IN
                                     --                                         --
        PRECIPITATION =        4.6531D+08          PRECIPITATION =                  
           STREAMFLOW =                               STREAMFLOW =                  
     GW BOUNDARY FLOW =                         GW BOUNDARY FLOW =                  


                                    OUT                                        OUT
                                    ---                                        ---
   EVAPOTRANSPIRATION =        2.9354D+08     EVAPOTRANSPIRATION =          13364.17
           STREAMFLOW =        1.7772D+08             STREAMFLOW =           5959.90
     GW BOUNDARY FLOW =        3769765.83       GW BOUNDARY FLOW =            649.06

   INFLOWS - OUTFLOWS =       -9722305.31     INFLOWS - OUTFLOWS =         -19973.13
             --------                                   --------

 TOTAL STORAGE CHANGE =       -9602715.22         STORAGE CHANGE =         -19988.00
       --------------                             --------------
         LAND SURFACE =       -7.2032D-09           LAND SURFACE =                  
            SOIL ZONE =         112605.87              SOIL ZONE =           -733.23
     UNSATURATED ZONE =        4476961.46       UNSATURATED ZONE =         -20022.60
       SATURATED ZONE =       -1.4192D+07         SATURATED ZONE =            767.84

 OVERALL BUDGET ERROR =        -119590.09           BUDGET ERROR =             14.87


  PERCENT DISCREPANCY =             -0.03    PERCENT DISCREPANCY =              0.07



1
 SUMMARY VOLUMETRIC BUDGET FOR GSFLOW 
 DATE: 09 17 1996              CUMULATIVE TIME STEP:    5831
 MODFLOW STRESS PERIOD      2     CURRENT TIME STEP:    5831     ITERATIONS:      12

 -----------------------------------------------------------------------------------

   CUMULATIVE VOLUMES               L**3   RATES FOR THIS TIME STEP           L**3/T
   ------------------                      ------------------------

                                     IN                                         IN
                                     --                                         --
        PRECIPITATION =        4.6637D+08          PRECIPITATION =                  
           STREAMFLOW =                               STREAMFLOW =                  
     GW BOUNDARY FLOW =                         GW BOUNDARY FLOW =                  


                                    OUT                                        OUT
                                    ---                                        ---
   EVAPOTRANSPIRATION =        2.9374D+08     EVAPOTRANSPIRATION =          74571.48
           STREAMFLOW =        1.7779D+08             STREAMFLOW =           9779.55
     GW BOUNDARY FLOW =        3774309.79       GW BOUNDARY FLOW =            649.47

   INFLOWS - OUTFLOWS =       -8935372.55     INFLOWS - OUTFLOWS =         -85000.50
             --------                                   --------

 TOTAL STORAGE CHANGE =       -8815900.30         STORAGE CHANGE =         -85027.64
       --------------                             --------------
         LAND SURFACE =       -7.2032D-09           LAND SURFACE =         -34505.06
            SOIL ZONE =        1031198.12              SOIL ZONE =         -31444.85
     UNSATURATED ZONE =        4337514.08       UNSATURATED ZONE =         -19745.19
       SATURATED ZONE =       -1.4185D+07         SATURATED ZONE =            667.46

 OVERALL BUDGET ERROR =        -119472.25           BUDGET ERROR =             27.14


  PERCENT DISCREPANCY =             -0.03    PERCENT DISCREPANCY =              0.03



1
 SUMMARY VOLUMETRIC BUDGET FOR GSFLOW 
 DATE: 09 24 1996              CUMULATIVE TIME STEP:    5838
 MODFLOW STRESS PERIOD      2     CURRENT TIME STEP:    5838     ITERATIONS:      13

 -----------------------------------------------------------------------------------

   CUMULATIVE VOLUMES               L**3   RATES FOR THIS TIME STEP           L**3/T
   ------------------                      ------------------------

                                     IN                                         IN
                                     --                                         --
        PRECIPITATION =        4.6637D+08          PRECIPITATION =                  
           STREAMFLOW =                               STREAMFLOW =                  
     GW BOUNDARY FLOW =                         GW BOUNDARY FLOW =                  


                                    OUT                                        OUT
                                    ---                                        ---
   EVAPOTRANSPIRATION =        2.9427D+08     EVAPOTRANSPIRATION =          51666.88
           STREAMFLOW =        1.7784D+08             STREAMFLOW =           6087.86
     GW BOUNDARY FLOW =        3778852.01       GW BOUNDARY FLOW =            648.56

   INFLOWS - OUTFLOWS =       -9524649.44     INFLOWS - OUTFLOWS =         -58403.30
             --------                                   --------

 TOTAL STORAGE CHANGE =       -9405319.97         STORAGE CHANGE =         -58417.22
       --------------                             --------------
         LAND SURFACE =       -7.2032D-09           LAND SURFACE =                  
            SOIL ZONE =         574684.65              SOIL ZONE =         -39537.35
     UNSATURATED ZONE =        4201864.80       UNSATURATED ZONE =         -19097.08
       SATURATED ZONE =       -1.4182D+07         SATURATED ZONE =            217.22

 OVERALL BUDGET ERROR =        -119329.47           BUDGET ERROR =             13.92


  PERCENT DISCREPANCY =             -0.03    PERCENT DISCREPANCY =              0.02



