1
 SUMMARY VOLUMETRIC BUDGET FOR GSFLOW 
 DATE: 10 07 1980              CUMULATIVE TIME STEP:       7
 MODFLOW STRESS PERIOD      2     CURRENT TIME STEP:       7     ITERATIONS:       4

 -----------------------------------------------------------------------------------

   CUMULATIVE VOLUMES               L**3   RATES FOR THIS TIME STEP           L**3/T
   ------------------                      ------------------------

                                     IN                                         IN
                                     --                                         --
        PRECIPITATION =                            PRECIPITATION =                  
           STREAMFLOW =                               STREAMFLOW =                  
     GW BOUNDARY FLOW =                         GW BOUNDARY FLOW =                  


                                    OUT                                        OUT
                                    ---                                        ---
   EVAPOTRANSPIRATION =          66584.71     EVAPOTRANSPIRATION =           9273.06
           STREAMFLOW =          43081.74             STREAMFLOW =           6083.37
     GW BOUNDARY FLOW =           5067.91       GW BOUNDARY FLOW =            723.90

   INFLOWS - OUTFLOWS =        -114734.35     INFLOWS - OUTFLOWS =         -16080.33
             --------                                   --------

 TOTAL STORAGE CHANGE =        -114495.73         STORAGE CHANGE =         -16045.38
       --------------                             --------------
         LAND SURFACE =                             LAND SURFACE =                  
            SOIL ZONE =          43860.69              SOIL ZONE =           6413.58
     UNSATURATED ZONE =        -144981.47       UNSATURATED ZONE =         -20388.09
       SATURATED ZONE =         -13374.96         SATURATED ZONE =          -2070.86

 OVERALL BUDGET ERROR =           -238.62           BUDGET ERROR =            -34.95


  PERCENT DISCREPANCY =             -0.21    PERCENT DISCREPANCY =             -0.22



1
 SUMMARY VOLUMETRIC BUDGET FOR GSFLOW 
 DATE: 10 14 1980              CUMULATIVE TIME STEP:      14
 MODFLOW STRESS PERIOD      2     CURRENT TIME STEP:      14     ITERATIONS:       4

 -----------------------------------------------------------------------------------

   CUMULATIVE VOLUMES               L**3   RATES FOR THIS TIME STEP           L**3/T
   ------------------                      ------------------------

                                     IN                                         IN
                                     --                                         --
        PRECIPITATION =         650779.83          PRECIPITATION =         164754.40
           STREAMFLOW =                               STREAMFLOW =                  
     GW BOUNDARY FLOW =                         GW BOUNDARY FLOW =                  


                                    OUT                                        OUT
                                    ---                                        ---
   EVAPOTRANSPIRATION =         162737.80     EVAPOTRANSPIRATION =          11475.93
           STREAMFLOW =          94342.01             STREAMFLOW =           7629.74
     GW BOUNDARY FLOW =          10135.82       GW BOUNDARY FLOW =            724.16

   INFLOWS - OUTFLOWS =         383564.21     INFLOWS - OUTFLOWS =         144924.57
             --------                                   --------

 TOTAL STORAGE CHANGE =         384060.28         STORAGE CHANGE =         144964.49
       --------------                             --------------
         LAND SURFACE =         183651.29           LAND SURFACE =         130477.12
            SOIL ZONE =         513810.17              SOIL ZONE =          36592.54
     UNSATURATED ZONE =        -284739.07       UNSATURATED ZONE =         -19611.62
       SATURATED ZONE =         -28662.11         SATURATED ZONE =          -2493.55

 OVERALL BUDGET ERROR =           -496.07           BUDGET ERROR =            -39.92


  PERCENT DISCREPANCY =             -0.08    PERCENT DISCREPANCY =             -0.02



1
 SUMMARY VOLUMETRIC BUDGET FOR GSFLOW 
 DATE: 10 21 1980              CUMULATIVE TIME STEP:      21
 MODFLOW STRESS PERIOD      2     CURRENT TIME STEP:      21     ITERATIONS:       5

 -----------------------------------------------------------------------------------

   CUMULATIVE VOLUMES               L**3   RATES FOR THIS TIME STEP           L**3/T
   ------------------                      ------------------------

                                     IN                                         IN
                                     --                                         --
        PRECIPITATION =         733157.03          PRECIPITATION =                  
           STREAMFLOW =                               STREAMFLOW =                  
     GW BOUNDARY FLOW =                         GW BOUNDARY FLOW =                  


                                    OUT                                        OUT
                                    ---                                        ---
   EVAPOTRANSPIRATION =         433114.19     EVAPOTRANSPIRATION =          44099.82
           STREAMFLOW =         144385.08             STREAMFLOW =           6656.23
     GW BOUNDARY FLOW =          15203.78       GW BOUNDARY FLOW =            723.87

   INFLOWS - OUTFLOWS =         140453.98     INFLOWS - OUTFLOWS =         -51479.93
             --------                                   --------

 TOTAL STORAGE CHANGE =         141200.52         STORAGE CHANGE =         -51447.46
       --------------                             --------------
         LAND SURFACE =       -1.7394D-11           LAND SURFACE =                  
            SOIL ZONE =         608357.70              SOIL ZONE =         -29473.71
     UNSATURATED ZONE =        -418661.12       UNSATURATED ZONE =         -18773.61
       SATURATED ZONE =         -48496.06         SATURATED ZONE =          -3200.14

 OVERALL BUDGET ERROR =           -746.54           BUDGET ERROR =            -32.47


  PERCENT DISCREPANCY =             -0.10    PERCENT DISCREPANCY =             -0.06



1
 SUMMARY VOLUMETRIC BUDGET FOR GSFLOW 
 DATE: 10 28 1980              CUMULATIVE TIME STEP:      28
 MODFLOW STRESS PERIOD      2     CURRENT TIME STEP:      28     ITERATIONS:       5

 -----------------------------------------------------------------------------------

   CUMULATIVE VOLUMES               L**3   RATES FOR THIS TIME STEP           L**3/T
   ------------------                      ------------------------

                                     IN                                         IN
                                     --                                         --
        PRECIPITATION =        1070903.53          PRECIPITATION =                  
           STREAMFLOW =                               STREAMFLOW =                  
     GW BOUNDARY FLOW =                         GW BOUNDARY FLOW =                  


                                    OUT                                        OUT
                                    ---                                        ---
   EVAPOTRANSPIRATION =         622781.32     EVAPOTRANSPIRATION =          24687.16
           STREAMFLOW =         196907.78             STREAMFLOW =           7747.48
     GW BOUNDARY FLOW =          20270.96       GW BOUNDARY FLOW =            723.96

   INFLOWS - OUTFLOWS =         230943.46     INFLOWS - OUTFLOWS =         -33158.60
             --------                                   --------

 TOTAL STORAGE CHANGE =         231922.50         STORAGE CHANGE =         -33126.64
       --------------                             --------------
         LAND SURFACE =          20524.24           LAND SURFACE =         -29854.70
            SOIL ZONE =         830555.56              SOIL ZONE =          18340.40
     UNSATURATED ZONE =        -546824.84       UNSATURATED ZONE =         -17935.54
       SATURATED ZONE =         -72332.45         SATURATED ZONE =          -3676.81

 OVERALL BUDGET ERROR =           -979.04           BUDGET ERROR =            -31.96


  PERCENT DISCREPANCY =             -0.09    PERCENT DISCREPANCY =             -0.10



1
 SUMMARY VOLUMETRIC BUDGET FOR GSFLOW 
 DATE: 11 04 1980              CUMULATIVE TIME STEP:      35
 MODFLOW STRESS PERIOD      2     CURRENT TIME STEP:      35     ITERATIONS:       6

 -----------------------------------------------------------------------------------

   CUMULATIVE VOLUMES               L**3   RATES FOR THIS TIME STEP           L**3/T
   ------------------                      ------------------------

                                     IN                                         IN
                                     --                                         --
        PRECIPITATION =        1070903.53          PRECIPITATION =                  
           STREAMFLOW =                               STREAMFLOW =                  
     GW BOUNDARY FLOW =                         GW BOUNDARY FLOW =                  


                                    OUT                                        OUT
                                    ---                                        ---
   EVAPOTRANSPIRATION =         961330.90     EVAPOTRANSPIRATION =          44292.09
           STREAMFLOW =         246362.04             STREAMFLOW =           6502.44
     GW BOUNDARY FLOW =          25337.67       GW BOUNDARY FLOW =            723.70

   INFLOWS - OUTFLOWS =        -162127.08     INFLOWS - OUTFLOWS =         -51518.23
             --------                                   --------

 TOTAL STORAGE CHANGE =        -160933.77         STORAGE CHANGE =         -51488.25
       --------------                             --------------
         LAND SURFACE =        3.1122D-12           LAND SURFACE =                  
            SOIL ZONE =         609949.27              SOIL ZONE =         -29828.24
     UNSATURATED ZONE =        -669820.90       UNSATURATED ZONE =         -17302.23
       SATURATED ZONE =        -101062.14         SATURATED ZONE =          -4357.77

 OVERALL BUDGET ERROR =          -1193.31           BUDGET ERROR =            -29.98


  PERCENT DISCREPANCY =             -0.10    PERCENT DISCREPANCY =             -0.06



1
 SUMMARY VOLUMETRIC BUDGET FOR GSFLOW 
 DATE: 11 11 1980              CUMULATIVE TIME STEP:      42
 MODFLOW STRESS PERIOD      2     CURRENT TIME STEP:      42     ITERATIONS:       5

 -----------------------------------------------------------------------------------

   CUMULATIVE VOLUMES               L**3   RATES FOR THIS TIME STEP           L**3/T
   ------------------                      ------------------------

                                     IN                                         IN
                                     --                                         --
        PRECIPITATION =        1573762.54          PRECIPITATION =         255182.19
           STREAMFLOW =                               STREAMFLOW =                  
     GW BOUNDARY FLOW =                         GW BOUNDARY FLOW =                  


                                    OUT                                        OUT
                                    ---                                        ---
   EVAPOTRANSPIRATION =        1194292.11     EVAPOTRANSPIRATION =          17114.36
           STREAMFLOW =         300118.26             STREAMFLOW =          10658.41
     GW BOUNDARY FLOW =          30404.02       GW BOUNDARY FLOW =            724.02

   INFLOWS - OUTFLOWS =          48948.15     INFLOWS - OUTFLOWS =         226685.40
             --------                                   --------

 TOTAL STORAGE CHANGE =          50367.38         STORAGE CHANGE =         226717.12
       --------------                             --------------
         LAND SURFACE =          76836.68           LAND SURFACE =          76836.68
            SOIL ZONE =         893280.61              SOIL ZONE =         170296.79
     UNSATURATED ZONE =        -787763.87       UNSATURATED ZONE =         -16369.01
       SATURATED ZONE =        -131986.04         SATURATED ZONE =          -4047.34

 OVERALL BUDGET ERROR =          -1419.23           BUDGET ERROR =            -31.73


  PERCENT DISCREPANCY =             -0.09    PERCENT DISCREPANCY =             -0.01



1
 SUMMARY VOLUMETRIC BUDGET FOR GSFLOW 
 DATE: 11 18 1980              CUMULATIVE TIME STEP:      49
 MODFLOW STRESS PERIOD      2     CURRENT TIME STEP:      49     ITERATIONS:       5

 -----------------------------------------------------------------------------------

   CUMULATIVE VOLUMES               L**3   RATES FOR THIS TIME STEP           L**3/T
   ------------------                      ------------------------

                                     IN                                         IN
                                     --                                         --
        PRECIPITATION =        1573762.54          PRECIPITATION =                  
           STREAMFLOW =                               STREAMFLOW =                  
     GW BOUNDARY FLOW =                         GW BOUNDARY FLOW =                  


                                    OUT                                        OUT
                                    ---                                        ---
   EVAPOTRANSPIRATION =        1291092.40     EVAPOTRANSPIRATION =          23211.27
           STREAMFLOW =         362568.47             STREAMFLOW =           9117.95
     GW BOUNDARY FLOW =          35472.43       GW BOUNDARY FLOW =            724.09

   INFLOWS - OUTFLOWS =        -115370.75     INFLOWS - OUTFLOWS =         -33053.31
             --------                                   --------

 TOTAL STORAGE CHANGE =        -113755.66         STORAGE CHANGE =         -33027.40
       --------------                             --------------
         LAND SURFACE =           5214.84           LAND SURFACE =          -7686.44
            SOIL ZONE =         947759.66              SOIL ZONE =          -4416.77
     UNSATURATED ZONE =        -901046.77       UNSATURATED ZONE =         -15950.39
       SATURATED ZONE =        -165683.39         SATURATED ZONE =          -4973.81

 OVERALL BUDGET ERROR =          -1615.09           BUDGET ERROR =            -25.91


  PERCENT DISCREPANCY =             -0.10    PERCENT DISCREPANCY =             -0.08



1
 SUMMARY VOLUMETRIC BUDGET FOR GSFLOW 
 DATE: 11 25 1980              CUMULATIVE TIME STEP:      56
 MODFLOW STRESS PERIOD      2     CURRENT TIME STEP:      56     ITERATIONS:       7

 -----------------------------------------------------------------------------------

   CUMULATIVE VOLUMES               L**3   RATES FOR THIS TIME STEP           L**3/T
   ------------------                      ------------------------

                                     IN                                         IN
                                     --                                         --
        PRECIPITATION =        1648816.13          PRECIPITATION =                  
           STREAMFLOW =                               STREAMFLOW =                  
     GW BOUNDARY FLOW =                         GW BOUNDARY FLOW =                  


                                    OUT                                        OUT
                                    ---                                        ---
   EVAPOTRANSPIRATION =        1380738.23     EVAPOTRANSPIRATION =           9277.87
           STREAMFLOW =         425150.78             STREAMFLOW =           9103.57
     GW BOUNDARY FLOW =          40540.90       GW BOUNDARY FLOW =            724.07

   INFLOWS - OUTFLOWS =        -197613.78     INFLOWS - OUTFLOWS =         -19105.51
             --------                                   --------

 TOTAL STORAGE CHANGE =        -195821.31         STORAGE CHANGE =         -19081.24
       --------------                             --------------
         LAND SURFACE =          53014.08           LAND SURFACE =          -9258.02
            SOIL ZONE =         964696.94              SOIL ZONE =          11099.36
     UNSATURATED ZONE =       -1010236.16       UNSATURATED ZONE =         -15326.93
       SATURATED ZONE =        -203296.17         SATURATED ZONE =          -5595.65

 OVERALL BUDGET ERROR =          -1792.47           BUDGET ERROR =            -24.27


  PERCENT DISCREPANCY =             -0.10    PERCENT DISCREPANCY =             -0.13



1
 SUMMARY VOLUMETRIC BUDGET FOR GSFLOW 
 DATE: 12 02 1980              CUMULATIVE TIME STEP:      63
 MODFLOW STRESS PERIOD      2     CURRENT TIME STEP:      63     ITERATIONS:       5

 -----------------------------------------------------------------------------------

   CUMULATIVE VOLUMES               L**3   RATES FOR THIS TIME STEP           L**3/T
   ------------------                      ------------------------

                                     IN                                         IN
                                     --                                         --
        PRECIPITATION =        2076621.55          PRECIPITATION =                  
           STREAMFLOW =                               STREAMFLOW =                  
     GW BOUNDARY FLOW =                         GW BOUNDARY FLOW =                  


                                    OUT                                        OUT
                                    ---                                        ---
   EVAPOTRANSPIRATION =        1590693.41     EVAPOTRANSPIRATION =          35191.26
           STREAMFLOW =         499216.44             STREAMFLOW =          12913.22
     GW BOUNDARY FLOW =          45610.59       GW BOUNDARY FLOW =            724.55

   INFLOWS - OUTFLOWS =         -58898.88     INFLOWS - OUTFLOWS =         -48829.03
             --------                                   --------

 TOTAL STORAGE CHANGE =         -56932.61         STORAGE CHANGE =         -48804.36
       --------------                             --------------
         LAND SURFACE =         139391.41           LAND SURFACE =         -82011.29
            SOIL ZONE =        1158149.54              SOIL ZONE =          51719.58
     UNSATURATED ZONE =       -1112451.03       UNSATURATED ZONE =         -13435.67
       SATURATED ZONE =        -242022.54         SATURATED ZONE =          -5076.99

 OVERALL BUDGET ERROR =          -1966.27           BUDGET ERROR =            -24.67


  PERCENT DISCREPANCY =             -0.09    PERCENT DISCREPANCY =             -0.05



1
 SUMMARY VOLUMETRIC BUDGET FOR GSFLOW 
 DATE: 12 09 1980              CUMULATIVE TIME STEP:      70
 MODFLOW STRESS PERIOD      2     CURRENT TIME STEP:      70     ITERATIONS:       5

 -----------------------------------------------------------------------------------

   CUMULATIVE VOLUMES               L**3   RATES FOR THIS TIME STEP           L**3/T
   ------------------                      ------------------------

                                     IN                                         IN
                                     --                                         --
        PRECIPITATION =        4284363.63          PRECIPITATION =                  
           STREAMFLOW =                               STREAMFLOW =                  
     GW BOUNDARY FLOW =                         GW BOUNDARY FLOW =                  


                                    OUT                                        OUT
                                    ---                                        ---
   EVAPOTRANSPIRATION =        1617255.37     EVAPOTRANSPIRATION =           4181.54
           STREAMFLOW =         584126.09             STREAMFLOW =          12587.20
     GW BOUNDARY FLOW =          50683.20       GW BOUNDARY FLOW =            724.82

   INFLOWS - OUTFLOWS =        2032298.97     INFLOWS - OUTFLOWS =         -17493.55
             --------                                   --------

 TOTAL STORAGE CHANGE =        2034437.83         STORAGE CHANGE =         -17469.54
       --------------                             --------------
         LAND SURFACE =        2318907.17           LAND SURFACE =          -4181.54
            SOIL ZONE =        1209289.65              SOIL ZONE =           6945.90
     UNSATURATED ZONE =       -1211094.73       UNSATURATED ZONE =         -14180.67
       SATURATED ZONE =        -282664.26         SATURATED ZONE =          -6053.23

 OVERALL BUDGET ERROR =          -2138.86           BUDGET ERROR =            -24.01


  PERCENT DISCREPANCY =             -0.05    PERCENT DISCREPANCY =             -0.14



1
 SUMMARY VOLUMETRIC BUDGET FOR GSFLOW 
 DATE: 12 16 1980              CUMULATIVE TIME STEP:      77
 MODFLOW STRESS PERIOD      2     CURRENT TIME STEP:      77     ITERATIONS:       6

 -----------------------------------------------------------------------------------

   CUMULATIVE VOLUMES               L**3   RATES FOR THIS TIME STEP           L**3/T
   ------------------                      ------------------------

                                     IN                                         IN
                                     --                                         --
        PRECIPITATION =        4284363.63          PRECIPITATION =                  
           STREAMFLOW =                               STREAMFLOW =                  
     GW BOUNDARY FLOW =                         GW BOUNDARY FLOW =                  


                                    OUT                                        OUT
                                    ---                                        ---
   EVAPOTRANSPIRATION =        1768634.44     EVAPOTRANSPIRATION =          35256.64
           STREAMFLOW =         691158.02             STREAMFLOW =          23028.51
     GW BOUNDARY FLOW =          55758.46       GW BOUNDARY FLOW =            725.64

   INFLOWS - OUTFLOWS =        1768812.72     INFLOWS - OUTFLOWS =         -59010.79
             --------                                   --------

 TOTAL STORAGE CHANGE =        1771103.97         STORAGE CHANGE =         -58989.03
       --------------                             --------------
         LAND SURFACE =        1970410.41           LAND SURFACE =        -143420.49
            SOIL ZONE =        1425697.84              SOIL ZONE =          98335.03
     UNSATURATED ZONE =       -1301081.83       UNSATURATED ZONE =          -9297.69
       SATURATED ZONE =        -323922.45         SATURATED ZONE =          -4605.88

 OVERALL BUDGET ERROR =          -2291.25           BUDGET ERROR =            -21.76


  PERCENT DISCREPANCY =             -0.05    PERCENT DISCREPANCY =             -0.04



1
 SUMMARY VOLUMETRIC BUDGET FOR GSFLOW 
 DATE: 12 23 1980              CUMULATIVE TIME STEP:      84
 MODFLOW STRESS PERIOD      2     CURRENT TIME STEP:      84     ITERATIONS:       7

 -----------------------------------------------------------------------------------

   CUMULATIVE VOLUMES               L**3   RATES FOR THIS TIME STEP           L**3/T
   ------------------                      ------------------------

                                     IN                                         IN
                                     --                                         --
        PRECIPITATION =        4516757.54          PRECIPITATION =                  
           STREAMFLOW =                               STREAMFLOW =                  
     GW BOUNDARY FLOW =                         GW BOUNDARY FLOW =                  


                                    OUT                                        OUT
                                    ---                                        ---
   EVAPOTRANSPIRATION =        1975788.69     EVAPOTRANSPIRATION =          34597.08
           STREAMFLOW =         921122.31             STREAMFLOW =          32022.61
     GW BOUNDARY FLOW =          60850.58       GW BOUNDARY FLOW =            728.26

   INFLOWS - OUTFLOWS =        1558995.96     INFLOWS - OUTFLOWS =         -67347.95
             --------                                   --------

 TOTAL STORAGE CHANGE =        1561411.64         STORAGE CHANGE =         -67331.84
       --------------                             --------------
         LAND SURFACE =        1253601.65           LAND SURFACE =         -63160.64
            SOIL ZONE =        2002886.97              SOIL ZONE =           5572.39
     UNSATURATED ZONE =       -1343381.99       UNSATURATED ZONE =          -5486.71
       SATURATED ZONE =        -351694.99         SATURATED ZONE =          -4256.87

 OVERALL BUDGET ERROR =          -2415.68           BUDGET ERROR =            -16.11


  PERCENT DISCREPANCY =             -0.05    PERCENT DISCREPANCY =             -0.02



1
 SUMMARY VOLUMETRIC BUDGET FOR GSFLOW 
 DATE: 12 30 1980              CUMULATIVE TIME STEP:      91
 MODFLOW STRESS PERIOD      2     CURRENT TIME STEP:      91     ITERATIONS:       7

 -----------------------------------------------------------------------------------

   CUMULATIVE VOLUMES               L**3   RATES FOR THIS TIME STEP           L**3/T
   ------------------                      ------------------------

                                     IN                                         IN
                                     --                                         --
        PRECIPITATION =        4516757.54          PRECIPITATION =                  
           STREAMFLOW =                               STREAMFLOW =                  
     GW BOUNDARY FLOW =                         GW BOUNDARY FLOW =                  


                                    OUT                                        OUT
                                    ---                                        ---
   EVAPOTRANSPIRATION =        2320996.11     EVAPOTRANSPIRATION =          45425.99
           STREAMFLOW =        1178971.52             STREAMFLOW =          27171.66
     GW BOUNDARY FLOW =          65953.32       GW BOUNDARY FLOW =            728.88

   INFLOWS - OUTFLOWS =         950836.59     INFLOWS - OUTFLOWS =         -73326.53
             --------                                   --------

 TOTAL STORAGE CHANGE =         953341.46         STORAGE CHANGE =         -73315.96
       --------------                             --------------
         LAND SURFACE =         428170.27           LAND SURFACE =         -40847.65
            SOIL ZONE =        2243970.69              SOIL ZONE =         -25642.61
     UNSATURATED ZONE =       -1343590.84       UNSATURATED ZONE =          -2626.88
       SATURATED ZONE =        -375208.65         SATURATED ZONE =          -4198.82

 OVERALL BUDGET ERROR =          -2504.87           BUDGET ERROR =            -10.57


  PERCENT DISCREPANCY =             -0.06    PERCENT DISCREPANCY =             -0.01



1
 SUMMARY VOLUMETRIC BUDGET FOR GSFLOW 
 DATE: 01 06 1981              CUMULATIVE TIME STEP:      98
 MODFLOW STRESS PERIOD      2     CURRENT TIME STEP:      98     ITERATIONS:       6

 -----------------------------------------------------------------------------------

   CUMULATIVE VOLUMES               L**3   RATES FOR THIS TIME STEP           L**3/T
   ------------------                      ------------------------

                                     IN                                         IN
                                     --                                         --
        PRECIPITATION =        5004445.43          PRECIPITATION =                  
           STREAMFLOW =                               STREAMFLOW =                  
     GW BOUNDARY FLOW =                         GW BOUNDARY FLOW =                  


                                    OUT                                        OUT
                                    ---                                        ---
   EVAPOTRANSPIRATION =        2540948.77     EVAPOTRANSPIRATION =          21274.99
           STREAMFLOW =        1321658.95             STREAMFLOW =          19333.42
     GW BOUNDARY FLOW =          71045.58       GW BOUNDARY FLOW =            726.82

   INFLOWS - OUTFLOWS =        1070792.12     INFLOWS - OUTFLOWS =         -41335.22
             --------                                   --------

 TOTAL STORAGE CHANGE =        1073398.56         STORAGE CHANGE =         -41319.41
       --------------                             --------------
         LAND SURFACE =         686156.85           LAND SURFACE =         -29019.52
            SOIL ZONE =        2205506.44              SOIL ZONE =           3917.52
     UNSATURATED ZONE =       -1404787.19       UNSATURATED ZONE =         -10443.40
       SATURATED ZONE =        -413477.54         SATURATED ZONE =          -5774.02

 OVERALL BUDGET ERROR =          -2606.44           BUDGET ERROR =            -15.81


  PERCENT DISCREPANCY =             -0.05    PERCENT DISCREPANCY =             -0.04



1
 SUMMARY VOLUMETRIC BUDGET FOR GSFLOW 
 DATE: 01 13 1981              CUMULATIVE TIME STEP:     105
 MODFLOW STRESS PERIOD      2     CURRENT TIME STEP:     105     ITERATIONS:       6

 -----------------------------------------------------------------------------------

   CUMULATIVE VOLUMES               L**3   RATES FOR THIS TIME STEP           L**3/T
   ------------------                      ------------------------

                                     IN                                         IN
                                     --                                         --
        PRECIPITATION =        5004445.43          PRECIPITATION =                  
           STREAMFLOW =                               STREAMFLOW =                  
     GW BOUNDARY FLOW =                         GW BOUNDARY FLOW =                  


                                    OUT                                        OUT
                                    ---                                        ---
   EVAPOTRANSPIRATION =        2746469.81     EVAPOTRANSPIRATION =          43317.93
           STREAMFLOW =        1471234.81             STREAMFLOW =          20283.93
     GW BOUNDARY FLOW =          76132.73       GW BOUNDARY FLOW =            726.61

   INFLOWS - OUTFLOWS =         710608.08     INFLOWS - OUTFLOWS =         -64328.46
             --------                                   --------

 TOTAL STORAGE CHANGE =         713303.19         STORAGE CHANGE =         -64313.47
       --------------                             --------------
         LAND SURFACE =         425947.44           LAND SURFACE =         -35966.44
            SOIL ZONE =        2202739.94              SOIL ZONE =         -14929.69
     UNSATURATED ZONE =       -1460234.71       UNSATURATED ZONE =          -7138.52
       SATURATED ZONE =        -455149.47         SATURATED ZONE =          -6278.81

 OVERALL BUDGET ERROR =          -2695.11           BUDGET ERROR =            -14.99


  PERCENT DISCREPANCY =             -0.05    PERCENT DISCREPANCY =             -0.02



1
 SUMMARY VOLUMETRIC BUDGET FOR GSFLOW 
 DATE: 01 20 1981              CUMULATIVE TIME STEP:     112
 MODFLOW STRESS PERIOD      2     CURRENT TIME STEP:     112     ITERATIONS:       6

 -----------------------------------------------------------------------------------

   CUMULATIVE VOLUMES               L**3   RATES FOR THIS TIME STEP           L**3/T
   ------------------                      ------------------------

                                     IN                                         IN
                                     --                                         --
        PRECIPITATION =        5170466.84          PRECIPITATION =          41505.35
           STREAMFLOW =                               STREAMFLOW =                  
     GW BOUNDARY FLOW =                         GW BOUNDARY FLOW =                  


                                    OUT                                        OUT
                                    ---                                        ---
   EVAPOTRANSPIRATION =        3045578.91     EVAPOTRANSPIRATION =          55046.79
           STREAMFLOW =        1602006.27             STREAMFLOW =          18035.66
     GW BOUNDARY FLOW =          81216.60       GW BOUNDARY FLOW =            726.10

   INFLOWS - OUTFLOWS =         441665.06     INFLOWS - OUTFLOWS =         -32303.20
             --------                                   --------

 TOTAL STORAGE CHANGE =         444478.36         STORAGE CHANGE =         -32287.56
       --------------                             --------------
         LAND SURFACE =         307725.69           LAND SURFACE =          10592.11
            SOIL ZONE =        2133415.28              SOIL ZONE =         -32603.40
     UNSATURATED ZONE =       -1493551.83       UNSATURATED ZONE =          -3056.70
       SATURATED ZONE =        -503110.77         SATURATED ZONE =          -7219.57

 OVERALL BUDGET ERROR =          -2813.30           BUDGET ERROR =            -15.65


  PERCENT DISCREPANCY =             -0.05    PERCENT DISCREPANCY =             -0.02



1
 SUMMARY VOLUMETRIC BUDGET FOR GSFLOW 
 DATE: 01 27 1981              CUMULATIVE TIME STEP:     119
 MODFLOW STRESS PERIOD      2     CURRENT TIME STEP:     119     ITERATIONS:       6

 -----------------------------------------------------------------------------------

   CUMULATIVE VOLUMES               L**3   RATES FOR THIS TIME STEP           L**3/T
   ------------------                      ------------------------

                                     IN                                         IN
                                     --                                         --
        PRECIPITATION =        8646540.08          PRECIPITATION =        2936503.63
           STREAMFLOW =                               STREAMFLOW =                  
     GW BOUNDARY FLOW =                         GW BOUNDARY FLOW =                  


                                    OUT                                        OUT
                                    ---                                        ---
   EVAPOTRANSPIRATION =        3273146.46     EVAPOTRANSPIRATION =          12594.32
           STREAMFLOW =        1728312.15             STREAMFLOW =          17274.26
     GW BOUNDARY FLOW =          86298.32       GW BOUNDARY FLOW =            725.82

   INFLOWS - OUTFLOWS =        3558783.15     INFLOWS - OUTFLOWS =        2905909.23
             --------                                   --------

 TOTAL STORAGE CHANGE =        3561671.60         STORAGE CHANGE =        2905918.42
       --------------                             --------------
         LAND SURFACE =        3468066.85           LAND SURFACE =        2923909.40
            SOIL ZONE =        2163193.05              SOIL ZONE =          -3009.09
     UNSATURATED ZONE =       -1515333.41       UNSATURATED ZONE =          -7452.19
       SATURATED ZONE =        -554254.88         SATURATED ZONE =          -7529.70

 OVERALL BUDGET ERROR =          -2888.45           BUDGET ERROR =             -9.18


  PERCENT DISCREPANCY =             -0.03    PERCENT DISCREPANCY =             -0.00



1
 SUMMARY VOLUMETRIC BUDGET FOR GSFLOW 
 DATE: 02 03 1981              CUMULATIVE TIME STEP:     126
 MODFLOW STRESS PERIOD      2     CURRENT TIME STEP:     126     ITERATIONS:       5

 -----------------------------------------------------------------------------------

   CUMULATIVE VOLUMES               L**3   RATES FOR THIS TIME STEP           L**3/T
   ------------------                      ------------------------

                                     IN                                         IN
                                     --                                         --
        PRECIPITATION =        1.1739D+07          PRECIPITATION =                  
           STREAMFLOW =                               STREAMFLOW =                  
     GW BOUNDARY FLOW =                         GW BOUNDARY FLOW =                  


                                    OUT                                        OUT
                                    ---                                        ---
   EVAPOTRANSPIRATION =        3310490.08     EVAPOTRANSPIRATION =           8129.77
           STREAMFLOW =        1850097.28             STREAMFLOW =          17587.10
     GW BOUNDARY FLOW =          91378.67       GW BOUNDARY FLOW =            725.77

   INFLOWS - OUTFLOWS =        6486722.74     INFLOWS - OUTFLOWS =         -26442.64
             --------                                   --------

 TOTAL STORAGE CHANGE =        6489686.97         STORAGE CHANGE =         -26430.91
       --------------                             --------------
         LAND SURFACE =        6522871.92           LAND SURFACE =          -8129.77
            SOIL ZONE =        2164156.86              SOIL ZONE =            988.00
     UNSATURATED ZONE =       -1587260.23       UNSATURATED ZONE =         -11042.87
       SATURATED ZONE =        -610081.59         SATURATED ZONE =          -8246.28

 OVERALL BUDGET ERROR =          -2964.23           BUDGET ERROR =            -11.73


  PERCENT DISCREPANCY =             -0.03    PERCENT DISCREPANCY =             -0.04



1
 SUMMARY VOLUMETRIC BUDGET FOR GSFLOW 
 DATE: 02 10 1981              CUMULATIVE TIME STEP:     133
 MODFLOW STRESS PERIOD      2     CURRENT TIME STEP:     133     ITERATIONS:       5

 -----------------------------------------------------------------------------------

   CUMULATIVE VOLUMES               L**3   RATES FOR THIS TIME STEP           L**3/T
   ------------------                      ------------------------

                                     IN                                         IN
                                     --                                         --
        PRECIPITATION =        1.1838D+07          PRECIPITATION =                  
           STREAMFLOW =                               STREAMFLOW =                  
     GW BOUNDARY FLOW =                         GW BOUNDARY FLOW =                  


                                    OUT                                        OUT
                                    ---                                        ---
   EVAPOTRANSPIRATION =        3444295.57     EVAPOTRANSPIRATION =          34655.68
           STREAMFLOW =        1974302.06             STREAMFLOW =          17818.81
     GW BOUNDARY FLOW =          96459.26       GW BOUNDARY FLOW =            725.80

   INFLOWS - OUTFLOWS =        6323196.40     INFLOWS - OUTFLOWS =         -53200.29
             --------                                   --------

 TOTAL STORAGE CHANGE =        6326242.82         STORAGE CHANGE =         -53184.60
       --------------                             --------------
         LAND SURFACE =        6488630.94           LAND SURFACE =         -34655.68
            SOIL ZONE =        2170109.59              SOIL ZONE =            708.77
     UNSATURATED ZONE =       -1662136.54       UNSATURATED ZONE =         -10328.42
       SATURATED ZONE =        -670361.18         SATURATED ZONE =          -8909.26

 OVERALL BUDGET ERROR =          -3046.43           BUDGET ERROR =            -15.69


  PERCENT DISCREPANCY =             -0.03    PERCENT DISCREPANCY =             -0.03



1
 SUMMARY VOLUMETRIC BUDGET FOR GSFLOW 
 DATE: 02 17 1981              CUMULATIVE TIME STEP:     140
 MODFLOW STRESS PERIOD      2     CURRENT TIME STEP:     140     ITERATIONS:      10

 -----------------------------------------------------------------------------------

   CUMULATIVE VOLUMES               L**3   RATES FOR THIS TIME STEP           L**3/T
   ------------------                      ------------------------

                                     IN                                         IN
                                     --                                         --
        PRECIPITATION =        1.2765D+07          PRECIPITATION =          68929.28
           STREAMFLOW =                               STREAMFLOW =                  
     GW BOUNDARY FLOW =                         GW BOUNDARY FLOW =                  


                                    OUT                                        OUT
                                    ---                                        ---
   EVAPOTRANSPIRATION =        3789046.32     EVAPOTRANSPIRATION =          68831.31
           STREAMFLOW =        2502614.31             STREAMFLOW =         126845.99
     GW BOUNDARY FLOW =         101567.66       GW BOUNDARY FLOW =            734.43

   INFLOWS - OUTFLOWS =        6371740.81     INFLOWS - OUTFLOWS =        -127482.45
             --------                                   --------

 TOTAL STORAGE CHANGE =        6374888.50         STORAGE CHANGE =        -127469.50
       --------------                             --------------
         LAND SURFACE =        5516053.06           LAND SURFACE =        -293545.88
            SOIL ZONE =        2965707.02              SOIL ZONE =          82302.79
     UNSATURATED ZONE =       -1416848.69       UNSATURATED ZONE =          81312.88
       SATURATED ZONE =        -690022.89         SATURATED ZONE =           2460.70

 OVERALL BUDGET ERROR =          -3147.69           BUDGET ERROR =            -12.95


  PERCENT DISCREPANCY =             -0.02    PERCENT DISCREPANCY =             -0.01



1
 SUMMARY VOLUMETRIC BUDGET FOR GSFLOW 
 DATE: 02 24 1981              CUMULATIVE TIME STEP:     147
 MODFLOW STRESS PERIOD      2     CURRENT TIME STEP:     147     ITERATIONS:      10

 -----------------------------------------------------------------------------------

   CUMULATIVE VOLUMES               L**3   RATES FOR THIS TIME STEP           L**3/T
   ------------------                      ------------------------

                                     IN                                         IN
                                     --                                         --
        PRECIPITATION =        1.3179D+07          PRECIPITATION =         344646.37
           STREAMFLOW =                               STREAMFLOW =                  
     GW BOUNDARY FLOW =                         GW BOUNDARY FLOW =                  


                                    OUT                                        OUT
                                    ---                                        ---
   EVAPOTRANSPIRATION =        4141475.83     EVAPOTRANSPIRATION =          19833.49
           STREAMFLOW =        3111030.15             STREAMFLOW =          55403.02
     GW BOUNDARY FLOW =         106706.83       GW BOUNDARY FLOW =            732.88

   INFLOWS - OUTFLOWS =        5819331.95     INFLOWS - OUTFLOWS =         268676.97
             --------                                   --------

 TOTAL STORAGE CHANGE =        5822518.95         STORAGE CHANGE =         268677.80
       --------------                             --------------
         LAND SURFACE =        4788811.12           LAND SURFACE =         299264.46
            SOIL ZONE =        2719537.08              SOIL ZONE =         -66964.38
     UNSATURATED ZONE =       -1023759.32       UNSATURATED ZONE =          32727.38
       SATURATED ZONE =        -662069.92         SATURATED ZONE =           3650.34

 OVERALL BUDGET ERROR =          -3187.00           BUDGET ERROR =             -0.83


  PERCENT DISCREPANCY =             -0.02    PERCENT DISCREPANCY =             -0.00



1
 SUMMARY VOLUMETRIC BUDGET FOR GSFLOW 
 DATE: 03 03 1981              CUMULATIVE TIME STEP:     154
 MODFLOW STRESS PERIOD      2     CURRENT TIME STEP:     154     ITERATIONS:       8

 -----------------------------------------------------------------------------------

   CUMULATIVE VOLUMES               L**3   RATES FOR THIS TIME STEP           L**3/T
   ------------------                      ------------------------

                                     IN                                         IN
                                     --                                         --
        PRECIPITATION =        1.3447D+07          PRECIPITATION =                  
           STREAMFLOW =                               STREAMFLOW =                  
     GW BOUNDARY FLOW =                         GW BOUNDARY FLOW =                  


                                    OUT                                        OUT
                                    ---                                        ---
   EVAPOTRANSPIRATION =        4304110.88     EVAPOTRANSPIRATION =          44522.60
           STREAMFLOW =        3341995.19             STREAMFLOW =          28184.78
     GW BOUNDARY FLOW =         111816.67       GW BOUNDARY FLOW =            728.59

   INFLOWS - OUTFLOWS =        5688680.30     INFLOWS - OUTFLOWS =         -73435.96
             --------                                   --------

 TOTAL STORAGE CHANGE =        5691833.09         STORAGE CHANGE =         -73441.60
       --------------                             --------------
         LAND SURFACE =        4870034.11           LAND SURFACE =         -66318.31
            SOIL ZONE =        2491174.30              SOIL ZONE =           2883.97
     UNSATURATED ZONE =       -1008156.41       UNSATURATED ZONE =          -8461.03
       SATURATED ZONE =        -661218.91         SATURATED ZONE =          -1546.23

 OVERALL BUDGET ERROR =          -3152.79           BUDGET ERROR =              5.64


  PERCENT DISCREPANCY =             -0.02    PERCENT DISCREPANCY =              0.01



1
 SUMMARY VOLUMETRIC BUDGET FOR GSFLOW 
 DATE: 03 10 1981              CUMULATIVE TIME STEP:     161
 MODFLOW STRESS PERIOD      2     CURRENT TIME STEP:     161     ITERATIONS:      10

 -----------------------------------------------------------------------------------

   CUMULATIVE VOLUMES               L**3   RATES FOR THIS TIME STEP           L**3/T
   ------------------                      ------------------------

                                     IN                                         IN
                                     --                                         --
        PRECIPITATION =        1.3493D+07          PRECIPITATION =                  
           STREAMFLOW =                               STREAMFLOW =                  
     GW BOUNDARY FLOW =                         GW BOUNDARY FLOW =                  


                                    OUT                                        OUT
                                    ---                                        ---
   EVAPOTRANSPIRATION =        4623117.20     EVAPOTRANSPIRATION =          63940.61
           STREAMFLOW =        3593368.78             STREAMFLOW =          48318.22
     GW BOUNDARY FLOW =         116917.35       GW BOUNDARY FLOW =            729.75

   INFLOWS - OUTFLOWS =        5159537.83     INFLOWS - OUTFLOWS =        -112988.58
             --------                                   --------

 TOTAL STORAGE CHANGE =        5162682.03         STORAGE CHANGE =        -112983.76
       --------------                             --------------
         LAND SURFACE =        4166691.04           LAND SURFACE =        -174424.22
            SOIL ZONE =        2631678.31              SOIL ZONE =          36770.51
     UNSATURATED ZONE =        -967227.64       UNSATURATED ZONE =          24344.35
       SATURATED ZONE =        -668459.68         SATURATED ZONE =            325.59

 OVERALL BUDGET ERROR =          -3144.20           BUDGET ERROR =             -4.82


  PERCENT DISCREPANCY =             -0.02    PERCENT DISCREPANCY =             -0.00



1
 SUMMARY VOLUMETRIC BUDGET FOR GSFLOW 
 DATE: 03 17 1981              CUMULATIVE TIME STEP:     168
 MODFLOW STRESS PERIOD      2     CURRENT TIME STEP:     168     ITERATIONS:       6

 -----------------------------------------------------------------------------------

   CUMULATIVE VOLUMES               L**3   RATES FOR THIS TIME STEP           L**3/T
   ------------------                      ------------------------

                                     IN                                         IN
                                     --                                         --
        PRECIPITATION =        1.3744D+07          PRECIPITATION =                  
           STREAMFLOW =                               STREAMFLOW =                  
     GW BOUNDARY FLOW =                         GW BOUNDARY FLOW =                  


                                    OUT                                        OUT
                                    ---                                        ---
   EVAPOTRANSPIRATION =        4979662.26     EVAPOTRANSPIRATION =          39557.80
           STREAMFLOW =        3838835.91             STREAMFLOW =          24647.49
     GW BOUNDARY FLOW =         122021.53       GW BOUNDARY FLOW =            728.29

   INFLOWS - OUTFLOWS =        4803971.19     INFLOWS - OUTFLOWS =         -64933.58
             --------                                   --------

 TOTAL STORAGE CHANGE =        4807108.84         STORAGE CHANGE =         -64922.67
       --------------                             --------------
         LAND SURFACE =        3974209.27           LAND SURFACE =         -39206.69
            SOIL ZONE =        2444878.09              SOIL ZONE =          -6235.11
     UNSATURATED ZONE =        -931509.28       UNSATURATED ZONE =         -15669.74
       SATURATED ZONE =        -680469.25         SATURATED ZONE =          -3811.13

 OVERALL BUDGET ERROR =          -3137.65           BUDGET ERROR =            -10.91


  PERCENT DISCREPANCY =             -0.02    PERCENT DISCREPANCY =             -0.02



1
 SUMMARY VOLUMETRIC BUDGET FOR GSFLOW 
 DATE: 03 24 1981              CUMULATIVE TIME STEP:     175
 MODFLOW STRESS PERIOD      2     CURRENT TIME STEP:     175     ITERATIONS:       6

 -----------------------------------------------------------------------------------

   CUMULATIVE VOLUMES               L**3   RATES FOR THIS TIME STEP           L**3/T
   ------------------                      ------------------------

                                     IN                                         IN
                                     --                                         --
        PRECIPITATION =        1.4367D+07          PRECIPITATION =                  
           STREAMFLOW =                               STREAMFLOW =                  
     GW BOUNDARY FLOW =                         GW BOUNDARY FLOW =                  


                                    OUT                                        OUT
                                    ---                                        ---
   EVAPOTRANSPIRATION =        5332719.73     EVAPOTRANSPIRATION =          85696.12
           STREAMFLOW =        4013442.26             STREAMFLOW =          27028.52
     GW BOUNDARY FLOW =         127114.39       GW BOUNDARY FLOW =            727.44

   INFLOWS - OUTFLOWS =        4893469.14     INFLOWS - OUTFLOWS =        -113452.09
             --------                                   --------

 TOTAL STORAGE CHANGE =        4896665.46         STORAGE CHANGE =        -113447.53
       --------------                             --------------
         LAND SURFACE =        4272856.05           LAND SURFACE =         -76624.30
            SOIL ZONE =        2345551.33              SOIL ZONE =         -28464.29
     UNSATURATED ZONE =       -1008964.10       UNSATURATED ZONE =          -3537.48
       SATURATED ZONE =        -712777.81         SATURATED ZONE =          -4821.45

 OVERALL BUDGET ERROR =          -3196.33           BUDGET ERROR =             -4.56


  PERCENT DISCREPANCY =             -0.02    PERCENT DISCREPANCY =             -0.00



1
 SUMMARY VOLUMETRIC BUDGET FOR GSFLOW 
 DATE: 03 31 1981              CUMULATIVE TIME STEP:     182
 MODFLOW STRESS PERIOD      2     CURRENT TIME STEP:     182     ITERATIONS:       8

 -----------------------------------------------------------------------------------

   CUMULATIVE VOLUMES               L**3   RATES FOR THIS TIME STEP           L**3/T
   ------------------                      ------------------------

                                     IN                                         IN
                                     --                                         --
        PRECIPITATION =        1.5777D+07          PRECIPITATION =                  
           STREAMFLOW =                               STREAMFLOW =                  
     GW BOUNDARY FLOW =                         GW BOUNDARY FLOW =                  


                                    OUT                                        OUT
                                    ---                                        ---
   EVAPOTRANSPIRATION =        5758229.67     EVAPOTRANSPIRATION =          55419.53
           STREAMFLOW =        4491660.38             STREAMFLOW =          36222.50
     GW BOUNDARY FLOW =         132232.92       GW BOUNDARY FLOW =            729.98

   INFLOWS - OUTFLOWS =        5394625.01     INFLOWS - OUTFLOWS =         -92372.00
             --------                                   --------

 TOTAL STORAGE CHANGE =        5397818.70         STORAGE CHANGE =         -92376.80
       --------------                             --------------
         LAND SURFACE =        4384801.12           LAND SURFACE =         -59744.51
            SOIL ZONE =        2526433.84              SOIL ZONE =         -33805.13
     UNSATURATED ZONE =        -806295.66       UNSATURATED ZONE =           1912.04
       SATURATED ZONE =        -707120.60         SATURATED ZONE =           -739.19

 OVERALL BUDGET ERROR =          -3193.69           BUDGET ERROR =              4.80


  PERCENT DISCREPANCY =             -0.02    PERCENT DISCREPANCY =              0.01



1
 SUMMARY VOLUMETRIC BUDGET FOR GSFLOW 
 DATE: 04 07 1981              CUMULATIVE TIME STEP:     189
 MODFLOW STRESS PERIOD      2     CURRENT TIME STEP:     189     ITERATIONS:       7

 -----------------------------------------------------------------------------------

   CUMULATIVE VOLUMES               L**3   RATES FOR THIS TIME STEP           L**3/T
   ------------------                      ------------------------

                                     IN                                         IN
                                     --                                         --
        PRECIPITATION =        1.6121D+07          PRECIPITATION =                  
           STREAMFLOW =                               STREAMFLOW =                  
     GW BOUNDARY FLOW =                         GW BOUNDARY FLOW =                  


                                    OUT                                        OUT
                                    ---                                        ---
   EVAPOTRANSPIRATION =        6390777.57     EVAPOTRANSPIRATION =         106275.37
           STREAMFLOW =        4816495.34             STREAMFLOW =          44410.82
     GW BOUNDARY FLOW =         137345.36       GW BOUNDARY FLOW =            730.64

   INFLOWS - OUTFLOWS =        4776849.33     INFLOWS - OUTFLOWS =        -151416.84
             --------                                   --------

 TOTAL STORAGE CHANGE =        4780014.20         STORAGE CHANGE =        -151424.09
       --------------                             --------------
         LAND SURFACE =        3736166.95           LAND SURFACE =        -144352.20
            SOIL ZONE =        2469511.68              SOIL ZONE =         -20175.04
     UNSATURATED ZONE =        -722125.48       UNSATURATED ZONE =          12789.45
       SATURATED ZONE =        -703538.96         SATURATED ZONE =            313.71

 OVERALL BUDGET ERROR =          -3164.87           BUDGET ERROR =              7.25


  PERCENT DISCREPANCY =             -0.02    PERCENT DISCREPANCY =              0.00



1
 SUMMARY VOLUMETRIC BUDGET FOR GSFLOW 
 DATE: 04 14 1981              CUMULATIVE TIME STEP:     196
 MODFLOW STRESS PERIOD      2     CURRENT TIME STEP:     196     ITERATIONS:       9

 -----------------------------------------------------------------------------------

   CUMULATIVE VOLUMES               L**3   RATES FOR THIS TIME STEP           L**3/T
   ------------------                      ------------------------

                                     IN                                         IN
                                     --                                         --
        PRECIPITATION =        1.6121D+07          PRECIPITATION =                  
           STREAMFLOW =                               STREAMFLOW =                  
     GW BOUNDARY FLOW =                         GW BOUNDARY FLOW =                  


                                    OUT                                        OUT
                                    ---                                        ---
   EVAPOTRANSPIRATION =        7317199.01     EVAPOTRANSPIRATION =         190233.46
           STREAMFLOW =        5133710.33             STREAMFLOW =          51720.68
     GW BOUNDARY FLOW =         142456.76       GW BOUNDARY FLOW =            729.95

   INFLOWS - OUTFLOWS =        3528101.51     INFLOWS - OUTFLOWS =        -242684.09
             --------                                   --------

 TOTAL STORAGE CHANGE =        3531254.81         STORAGE CHANGE =        -242681.02
       --------------                             --------------
         LAND SURFACE =        2519776.34           LAND SURFACE =        -240402.34
            SOIL ZONE =        2340782.11              SOIL ZONE =         -22335.03
     UNSATURATED ZONE =        -631719.27       UNSATURATED ZONE =          18222.31
       SATURATED ZONE =        -697584.36         SATURATED ZONE =           1834.04

 OVERALL BUDGET ERROR =          -3153.31           BUDGET ERROR =             -3.07


  PERCENT DISCREPANCY =             -0.02    PERCENT DISCREPANCY =             -0.00



1
 SUMMARY VOLUMETRIC BUDGET FOR GSFLOW 
 DATE: 04 21 1981              CUMULATIVE TIME STEP:     203
 MODFLOW STRESS PERIOD      2     CURRENT TIME STEP:     203     ITERATIONS:       9

 -----------------------------------------------------------------------------------

   CUMULATIVE VOLUMES               L**3   RATES FOR THIS TIME STEP           L**3/T
   ------------------                      ------------------------

                                     IN                                         IN
                                     --                                         --
        PRECIPITATION =        1.6310D+07          PRECIPITATION =                  
           STREAMFLOW =                               STREAMFLOW =                  
     GW BOUNDARY FLOW =                         GW BOUNDARY FLOW =                  


                                    OUT                                        OUT
                                    ---                                        ---
   EVAPOTRANSPIRATION =        8374031.61     EVAPOTRANSPIRATION =         149704.14
           STREAMFLOW =        5448729.37             STREAMFLOW =          42370.97
     GW BOUNDARY FLOW =         147560.82       GW BOUNDARY FLOW =            728.64

   INFLOWS - OUTFLOWS =        2339920.84     INFLOWS - OUTFLOWS =        -192803.75
             --------                                   --------

 TOTAL STORAGE CHANGE =        2343075.89         STORAGE CHANGE =        -192805.32
       --------------                             --------------
         LAND SURFACE =        1382538.25           LAND SURFACE =        -117802.65
            SOIL ZONE =        2165100.02              SOIL ZONE =         -93180.55
     UNSATURATED ZONE =        -521909.16       UNSATURATED ZONE =          15824.91
       SATURATED ZONE =        -682653.22         SATURATED ZONE =           2352.97

 OVERALL BUDGET ERROR =          -3155.05           BUDGET ERROR =              1.57


  PERCENT DISCREPANCY =             -0.02    PERCENT DISCREPANCY =              0.00



1
 SUMMARY VOLUMETRIC BUDGET FOR GSFLOW 
 DATE: 04 28 1981              CUMULATIVE TIME STEP:     210
 MODFLOW STRESS PERIOD      2     CURRENT TIME STEP:     210     ITERATIONS:      10

 -----------------------------------------------------------------------------------

   CUMULATIVE VOLUMES               L**3   RATES FOR THIS TIME STEP           L**3/T
   ------------------                      ------------------------

                                     IN                                         IN
                                     --                                         --
        PRECIPITATION =        1.6515D+07          PRECIPITATION =                  
           STREAMFLOW =                               STREAMFLOW =                  
     GW BOUNDARY FLOW =                         GW BOUNDARY FLOW =                  


                                    OUT                                        OUT
                                    ---                                        ---
   EVAPOTRANSPIRATION =        9594294.88     EVAPOTRANSPIRATION =         198526.27
           STREAMFLOW =        5636911.71             STREAMFLOW =          21155.20
     GW BOUNDARY FLOW =         152649.91       GW BOUNDARY FLOW =            725.91

   INFLOWS - OUTFLOWS =        1131576.39     INFLOWS - OUTFLOWS =        -220407.37
             --------                                   --------

 TOTAL STORAGE CHANGE =        1134741.08         STORAGE CHANGE =        -220401.59
       --------------                             --------------
         LAND SURFACE =         673414.06           LAND SURFACE =         -80832.88
            SOIL ZONE =        1673048.24              SOIL ZONE =        -133347.58
     UNSATURATED ZONE =        -529327.87       UNSATURATED ZONE =          -5331.16
       SATURATED ZONE =        -682393.36         SATURATED ZONE =           -889.98

 OVERALL BUDGET ERROR =          -3164.69           BUDGET ERROR =             -5.78


  PERCENT DISCREPANCY =             -0.02    PERCENT DISCREPANCY =             -0.00



1
 SUMMARY VOLUMETRIC BUDGET FOR GSFLOW 
 DATE: 05 05 1981              CUMULATIVE TIME STEP:     217
 MODFLOW STRESS PERIOD      2     CURRENT TIME STEP:     217     ITERATIONS:       8

 -----------------------------------------------------------------------------------

   CUMULATIVE VOLUMES               L**3   RATES FOR THIS TIME STEP           L**3/T
   ------------------                      ------------------------

                                     IN                                         IN
                                     --                                         --
        PRECIPITATION =        1.6515D+07          PRECIPITATION =                  
           STREAMFLOW =                               STREAMFLOW =                  
     GW BOUNDARY FLOW =                         GW BOUNDARY FLOW =                  


                                    OUT                                        OUT
                                    ---                                        ---
   EVAPOTRANSPIRATION =        1.0443D+07     EVAPOTRANSPIRATION =          52099.73
           STREAMFLOW =        5728251.80             STREAMFLOW =          10102.94
     GW BOUNDARY FLOW =         157722.91       GW BOUNDARY FLOW =            723.98

   INFLOWS - OUTFLOWS =         186011.23     INFLOWS - OUTFLOWS =         -62926.65
             --------                                   --------

 TOTAL STORAGE CHANGE =         189233.50         STORAGE CHANGE =         -62920.27
       --------------                             --------------
         LAND SURFACE =         334656.41           LAND SURFACE =         -15721.29
            SOIL ZONE =        1175033.42              SOIL ZONE =         -28244.80
     UNSATURATED ZONE =        -619752.97       UNSATURATED ZONE =         -15279.23
       SATURATED ZONE =        -700703.37         SATURATED ZONE =          -3674.95

 OVERALL BUDGET ERROR =          -3222.27           BUDGET ERROR =             -6.38


  PERCENT DISCREPANCY =             -0.02    PERCENT DISCREPANCY =             -0.01



1
 SUMMARY VOLUMETRIC BUDGET FOR GSFLOW 
 DATE: 05 12 1981              CUMULATIVE TIME STEP:     224
 MODFLOW STRESS PERIOD      2     CURRENT TIME STEP:     224     ITERATIONS:      10

 -----------------------------------------------------------------------------------

   CUMULATIVE VOLUMES               L**3   RATES FOR THIS TIME STEP           L**3/T
   ------------------                      ------------------------

                                     IN                                         IN
                                     --                                         --
        PRECIPITATION =        1.6515D+07          PRECIPITATION =                  
           STREAMFLOW =                               STREAMFLOW =                  
     GW BOUNDARY FLOW =                         GW BOUNDARY FLOW =                  


                                    OUT                                        OUT
                                    ---                                        ---
   EVAPOTRANSPIRATION =        1.0923D+07     EVAPOTRANSPIRATION =          86695.00
           STREAMFLOW =        5796730.05             STREAMFLOW =          10343.80
     GW BOUNDARY FLOW =         162787.89       GW BOUNDARY FLOW =            723.45

   INFLOWS - OUTFLOWS =        -366969.25     INFLOWS - OUTFLOWS =         -97762.25
             --------                                   --------

 TOTAL STORAGE CHANGE =        -363670.56         STORAGE CHANGE =         -97752.96
       --------------                             --------------
         LAND SURFACE =         200880.64           LAND SURFACE =         -23187.22
            SOIL ZONE =         893652.85              SOIL ZONE =         -55578.85
     UNSATURATED ZONE =        -724076.06       UNSATURATED ZONE =         -13501.05
       SATURATED ZONE =        -734127.99         SATURATED ZONE =          -5485.85

 OVERALL BUDGET ERROR =          -3298.69           BUDGET ERROR =             -9.28


  PERCENT DISCREPANCY =             -0.02    PERCENT DISCREPANCY =             -0.01



1
 SUMMARY VOLUMETRIC BUDGET FOR GSFLOW 
 DATE: 05 19 1981              CUMULATIVE TIME STEP:     231
 MODFLOW STRESS PERIOD      2     CURRENT TIME STEP:     231     ITERATIONS:      11

 -----------------------------------------------------------------------------------

   CUMULATIVE VOLUMES               L**3   RATES FOR THIS TIME STEP           L**3/T
   ------------------                      ------------------------

                                     IN                                         IN
                                     --                                         --
        PRECIPITATION =        1.7837D+07          PRECIPITATION =         169045.43
           STREAMFLOW =                               STREAMFLOW =                  
     GW BOUNDARY FLOW =                         GW BOUNDARY FLOW =                  


                                    OUT                                        OUT
                                    ---                                        ---
   EVAPOTRANSPIRATION =        1.1309D+07     EVAPOTRANSPIRATION =          31098.89
           STREAMFLOW =        5919925.88             STREAMFLOW =          22834.92
     GW BOUNDARY FLOW =         167854.93       GW BOUNDARY FLOW =            725.09

   INFLOWS - OUTFLOWS =         440526.12     INFLOWS - OUTFLOWS =         114386.53
             --------                                   --------

 TOTAL STORAGE CHANGE =         443890.51         STORAGE CHANGE =         114394.24
       --------------                             --------------
         LAND SURFACE =         191525.02           LAND SURFACE =          21995.78
            SOIL ZONE =        1822217.02              SOIL ZONE =         101591.56
     UNSATURATED ZONE =        -793487.82       UNSATURATED ZONE =          -2929.70
       SATURATED ZONE =        -776363.70         SATURATED ZONE =          -6263.40

 OVERALL BUDGET ERROR =          -3364.40           BUDGET ERROR =             -7.72


  PERCENT DISCREPANCY =             -0.02    PERCENT DISCREPANCY =             -0.00



1
 SUMMARY VOLUMETRIC BUDGET FOR GSFLOW 
 DATE: 05 26 1981              CUMULATIVE TIME STEP:     238
 MODFLOW STRESS PERIOD      2     CURRENT TIME STEP:     238     ITERATIONS:       8

 -----------------------------------------------------------------------------------

   CUMULATIVE VOLUMES               L**3   RATES FOR THIS TIME STEP           L**3/T
   ------------------                      ------------------------

                                     IN                                         IN
                                     --                                         --
        PRECIPITATION =        1.8252D+07          PRECIPITATION =         284303.67
           STREAMFLOW =                               STREAMFLOW =                  
     GW BOUNDARY FLOW =                         GW BOUNDARY FLOW =                  


                                    OUT                                        OUT
                                    ---                                        ---
   EVAPOTRANSPIRATION =        1.2155D+07     EVAPOTRANSPIRATION =         134158.24
           STREAMFLOW =        6021811.07             STREAMFLOW =          18530.96
     GW BOUNDARY FLOW =         172923.56       GW BOUNDARY FLOW =            723.86

   INFLOWS - OUTFLOWS =         -97343.40     INFLOWS - OUTFLOWS =         130890.62
             --------                                   --------

 TOTAL STORAGE CHANGE =         -93922.28         STORAGE CHANGE =         130899.43
       --------------                             --------------
         LAND SURFACE =         116838.50           LAND SURFACE =          -7314.96
            SOIL ZONE =        1475828.76              SOIL ZONE =         155306.76
     UNSATURATED ZONE =        -860582.03       UNSATURATED ZONE =         -10369.64
       SATURATED ZONE =        -826007.50         SATURATED ZONE =          -6722.73

 OVERALL BUDGET ERROR =          -3421.12           BUDGET ERROR =             -8.81


  PERCENT DISCREPANCY =             -0.02    PERCENT DISCREPANCY =             -0.00



1
 SUMMARY VOLUMETRIC BUDGET FOR GSFLOW 
 DATE: 06 02 1981              CUMULATIVE TIME STEP:     245
 MODFLOW STRESS PERIOD      2     CURRENT TIME STEP:     245     ITERATIONS:       8

 -----------------------------------------------------------------------------------

   CUMULATIVE VOLUMES               L**3   RATES FOR THIS TIME STEP           L**3/T
   ------------------                      ------------------------

                                     IN                                         IN
                                     --                                         --
        PRECIPITATION =        1.8318D+07          PRECIPITATION =          50869.96
           STREAMFLOW =                               STREAMFLOW =                  
     GW BOUNDARY FLOW =                         GW BOUNDARY FLOW =                  


                                    OUT                                        OUT
                                    ---                                        ---
   EVAPOTRANSPIRATION =        1.2932D+07     EVAPOTRANSPIRATION =          76917.18
           STREAMFLOW =        6087562.28             STREAMFLOW =           7481.90
     GW BOUNDARY FLOW =         177985.38       GW BOUNDARY FLOW =            722.60

   INFLOWS - OUTFLOWS =        -879816.25     INFLOWS - OUTFLOWS =         -34251.73
             --------                                   --------

 TOTAL STORAGE CHANGE =        -876333.75         STORAGE CHANGE =         -34242.45
       --------------                             --------------
         LAND SURFACE =          73764.49           LAND SURFACE =          28874.37
            SOIL ZONE =         878066.21              SOIL ZONE =         -41905.97
     UNSATURATED ZONE =        -944793.15       UNSATURATED ZONE =         -12657.15
       SATURATED ZONE =        -883371.29         SATURATED ZONE =          -8553.69

 OVERALL BUDGET ERROR =          -3482.50           BUDGET ERROR =             -9.28


  PERCENT DISCREPANCY =             -0.02    PERCENT DISCREPANCY =             -0.01



1
 SUMMARY VOLUMETRIC BUDGET FOR GSFLOW 
 DATE: 06 09 1981              CUMULATIVE TIME STEP:     252
 MODFLOW STRESS PERIOD      2     CURRENT TIME STEP:     252     ITERATIONS:      10

 -----------------------------------------------------------------------------------

   CUMULATIVE VOLUMES               L**3   RATES FOR THIS TIME STEP           L**3/T
   ------------------                      ------------------------

                                     IN                                         IN
                                     --                                         --
        PRECIPITATION =        1.8318D+07          PRECIPITATION =                  
           STREAMFLOW =                               STREAMFLOW =                  
     GW BOUNDARY FLOW =                         GW BOUNDARY FLOW =                  


                                    OUT                                        OUT
                                    ---                                        ---
   EVAPOTRANSPIRATION =        1.3423D+07     EVAPOTRANSPIRATION =          54227.42
           STREAMFLOW =        6134132.25             STREAMFLOW =           6314.34
     GW BOUNDARY FLOW =         183041.30       GW BOUNDARY FLOW =            722.10

   INFLOWS - OUTFLOWS =       -1422393.22     INFLOWS - OUTFLOWS =         -61263.85
             --------                                   --------

 TOTAL STORAGE CHANGE =       -1418842.18         STORAGE CHANGE =         -61255.99
       --------------                             --------------
         LAND SURFACE =          12433.04           LAND SURFACE =          -2874.35
            SOIL ZONE =         550868.99              SOIL ZONE =         -36210.20
     UNSATURATED ZONE =       -1036268.24       UNSATURATED ZONE =         -13046.67
       SATURATED ZONE =        -945875.96         SATURATED ZONE =          -9124.77

 OVERALL BUDGET ERROR =          -3551.05           BUDGET ERROR =             -7.86


  PERCENT DISCREPANCY =             -0.02    PERCENT DISCREPANCY =             -0.01



1
 SUMMARY VOLUMETRIC BUDGET FOR GSFLOW 
 DATE: 06 16 1981              CUMULATIVE TIME STEP:     259
 MODFLOW STRESS PERIOD      2     CURRENT TIME STEP:     259     ITERATIONS:       9

 -----------------------------------------------------------------------------------

   CUMULATIVE VOLUMES               L**3   RATES FOR THIS TIME STEP           L**3/T
   ------------------                      ------------------------

                                     IN                                         IN
                                     --                                         --
        PRECIPITATION =        1.8318D+07          PRECIPITATION =                  
           STREAMFLOW =                               STREAMFLOW =                  
     GW BOUNDARY FLOW =                         GW BOUNDARY FLOW =                  


                                    OUT                                        OUT
                                    ---                                        ---
   EVAPOTRANSPIRATION =        1.3619D+07     EVAPOTRANSPIRATION =          45075.24
           STREAMFLOW =        6177195.95             STREAMFLOW =           6098.52
     GW BOUNDARY FLOW =         188095.02       GW BOUNDARY FLOW =            721.88

   INFLOWS - OUTFLOWS =       -1666399.24     INFLOWS - OUTFLOWS =         -51895.63
             --------                                   --------

 TOTAL STORAGE CHANGE =       -1662796.04         STORAGE CHANGE =         -51888.67
       --------------                             --------------
         LAND SURFACE =           5589.10           LAND SURFACE =          -1244.68
            SOIL ZONE =         467745.30              SOIL ZONE =         -28777.94
     UNSATURATED ZONE =       -1124358.18       UNSATURATED ZONE =         -12353.16
       SATURATED ZONE =       -1011772.25         SATURATED ZONE =          -9512.89

 OVERALL BUDGET ERROR =          -3603.19           BUDGET ERROR =             -6.96


  PERCENT DISCREPANCY =             -0.02    PERCENT DISCREPANCY =             -0.01



1
 SUMMARY VOLUMETRIC BUDGET FOR GSFLOW 
 DATE: 06 23 1981              CUMULATIVE TIME STEP:     266
 MODFLOW STRESS PERIOD      2     CURRENT TIME STEP:     266     ITERATIONS:      10

 -----------------------------------------------------------------------------------

   CUMULATIVE VOLUMES               L**3   RATES FOR THIS TIME STEP           L**3/T
   ------------------                      ------------------------

                                     IN                                         IN
                                     --                                         --
        PRECIPITATION =        1.8318D+07          PRECIPITATION =                  
           STREAMFLOW =                               STREAMFLOW =                  
     GW BOUNDARY FLOW =                         GW BOUNDARY FLOW =                  


                                    OUT                                        OUT
                                    ---                                        ---
   EVAPOTRANSPIRATION =        1.3911D+07     EVAPOTRANSPIRATION =          32653.57
           STREAMFLOW =        6219123.34             STREAMFLOW =           5932.41
     GW BOUNDARY FLOW =         193150.74       GW BOUNDARY FLOW =            722.67

   INFLOWS - OUTFLOWS =       -2004652.55     INFLOWS - OUTFLOWS =         -39308.65
             --------                                   --------

 TOTAL STORAGE CHANGE =       -2000996.57         STORAGE CHANGE =         -39302.22
       --------------                             --------------
         LAND SURFACE =       -9.1671D-10           LAND SURFACE =                  
            SOIL ZONE =         287046.46              SOIL ZONE =         -17721.02
     UNSATURATED ZONE =       -1207140.59       UNSATURATED ZONE =         -11589.99
       SATURATED ZONE =       -1080902.44         SATURATED ZONE =          -9991.20

 OVERALL BUDGET ERROR =          -3655.98           BUDGET ERROR =             -6.43


  PERCENT DISCREPANCY =             -0.02    PERCENT DISCREPANCY =             -0.02



1
 SUMMARY VOLUMETRIC BUDGET FOR GSFLOW 
 DATE: 06 30 1981              CUMULATIVE TIME STEP:     273
 MODFLOW STRESS PERIOD      2     CURRENT TIME STEP:     273     ITERATIONS:       8

 -----------------------------------------------------------------------------------

   CUMULATIVE VOLUMES               L**3   RATES FOR THIS TIME STEP           L**3/T
   ------------------                      ------------------------

                                     IN                                         IN
[...]
                                    ---                                        ---
   EVAPOTRANSPIRATION =        2.8736D+08     EVAPOTRANSPIRATION =          36023.70
           STREAMFLOW =        1.8138D+08             STREAMFLOW =           7024.13
     GW BOUNDARY FLOW =        4178713.87       GW BOUNDARY FLOW =            726.45

   INFLOWS - OUTFLOWS =       -7857560.48     INFLOWS - OUTFLOWS =         -43774.28
             --------                                   --------

 TOTAL STORAGE CHANGE =       -7827497.48         STORAGE CHANGE =         -43768.07
       --------------                             --------------
         LAND SURFACE =           3414.17           LAND SURFACE =           -684.29
            SOIL ZONE =         251417.99              SOIL ZONE =         -21450.68
     UNSATURATED ZONE =        5325355.72       UNSATURATED ZONE =         -27858.25
       SATURATED ZONE =       -1.3408D+07         SATURATED ZONE =           6225.15

 OVERALL BUDGET ERROR =         -30063.00           BUDGET ERROR =             -6.21


  PERCENT DISCREPANCY =             -0.01    PERCENT DISCREPANCY =             -0.01



1
 SUMMARY VOLUMETRIC BUDGET FOR GSFLOW 
 DATE: 07 30 1996              CUMULATIVE TIME STEP:    5782
 MODFLOW STRESS PERIOD      2     CURRENT TIME STEP:    5782     ITERATIONS:      10

 -----------------------------------------------------------------------------------

   CUMULATIVE VOLUMES               L**3   RATES FOR THIS TIME STEP           L**3/T
   ------------------                      ------------------------

                                     IN                                         IN
                                     --                                         --
        PRECIPITATION =        4.6511D+08          PRECIPITATION =                  
           STREAMFLOW =                               STREAMFLOW =                  
     GW BOUNDARY FLOW =                         GW BOUNDARY FLOW =                  


                                    OUT                                        OUT
                                    ---                                        ---
   EVAPOTRANSPIRATION =        2.8758D+08     EVAPOTRANSPIRATION =          23902.61
           STREAMFLOW =        1.8143D+08             STREAMFLOW =           6849.09
     GW BOUNDARY FLOW =        4183796.68       GW BOUNDARY FLOW =            725.86

   INFLOWS - OUTFLOWS =       -8084735.11     INFLOWS - OUTFLOWS =         -31477.56
             --------                                   --------

 TOTAL STORAGE CHANGE =       -8054623.48         STORAGE CHANGE =         -31470.43
       --------------                             --------------
         LAND SURFACE =            304.32           LAND SURFACE =           -298.58
            SOIL ZONE =         177357.28              SOIL ZONE =          -9895.57
     UNSATURATED ZONE =        5135260.52       UNSATURATED ZONE =         -27076.75
       SATURATED ZONE =       -1.3368D+07         SATURATED ZONE =           5800.48

 OVERALL BUDGET ERROR =         -30111.63           BUDGET ERROR =             -7.13


  PERCENT DISCREPANCY =             -0.01    PERCENT DISCREPANCY =             -0.02



1
 SUMMARY VOLUMETRIC BUDGET FOR GSFLOW 
 DATE: 08 06 1996              CUMULATIVE TIME STEP:    5789
 MODFLOW STRESS PERIOD      2     CURRENT TIME STEP:    5789     ITERATIONS:      11

 -----------------------------------------------------------------------------------

   CUMULATIVE VOLUMES               L**3   RATES FOR THIS TIME STEP           L**3/T
   ------------------                      ------------------------

                                     IN                                         IN
                                     --                                         --
        PRECIPITATION =        4.6511D+08          PRECIPITATION =                  
           STREAMFLOW =                               STREAMFLOW =                  
     GW BOUNDARY FLOW =                         GW BOUNDARY FLOW =                  


                                    OUT                                        OUT
                                    ---                                        ---
   EVAPOTRANSPIRATION =        2.8771D+08     EVAPOTRANSPIRATION =          15979.34
           STREAMFLOW =        1.8148D+08             STREAMFLOW =           6641.39
     GW BOUNDARY FLOW =        4188877.19       GW BOUNDARY FLOW =            725.70

   INFLOWS - OUTFLOWS =       -8264935.71     INFLOWS - OUTFLOWS =         -23346.43
             --------                                   --------

 TOTAL STORAGE CHANGE =       -8234769.52         STORAGE CHANGE =         -23336.98
       --------------                             --------------
         LAND SURFACE =        2.3265D-08           LAND SURFACE =                  
            SOIL ZONE =         145146.22              SOIL ZONE =          -2381.94
     UNSATURATED ZONE =        4951164.61       UNSATURATED ZONE =         -25636.63
       SATURATED ZONE =       -1.3331D+07         SATURATED ZONE =           4681.60

 OVERALL BUDGET ERROR =         -30166.20           BUDGET ERROR =             -9.46


  PERCENT DISCREPANCY =             -0.01    PERCENT DISCREPANCY =             -0.04



1
 SUMMARY VOLUMETRIC BUDGET FOR GSFLOW 
 DATE: 08 13 1996              CUMULATIVE TIME STEP:    5796
 MODFLOW STRESS PERIOD      2     CURRENT TIME STEP:    5796     ITERATIONS:      10

 -----------------------------------------------------------------------------------

   CUMULATIVE VOLUMES               L**3   RATES FOR THIS TIME STEP           L**3/T
   ------------------                      ------------------------

                                     IN                                         IN
                                     --                                         --
        PRECIPITATION =        4.6531D+08          PRECIPITATION =          54454.08
           STREAMFLOW =                               STREAMFLOW =                  
     GW BOUNDARY FLOW =                         GW BOUNDARY FLOW =                  


                                    OUT                                        OUT
                                    ---                                        ---
   EVAPOTRANSPIRATION =        2.8786D+08     EVAPOTRANSPIRATION =          30284.13
           STREAMFLOW =        1.8153D+08             STREAMFLOW =           7815.14
     GW BOUNDARY FLOW =        4193956.48       GW BOUNDARY FLOW =            725.62

   INFLOWS - OUTFLOWS =       -8272385.40     INFLOWS - OUTFLOWS =          15629.19
             --------                                   --------

 TOTAL STORAGE CHANGE =       -8242174.04         STORAGE CHANGE =          15637.13
       --------------                             --------------
         LAND SURFACE =          34505.06           LAND SURFACE =                  
            SOIL ZONE =         248407.22              SOIL ZONE =          36176.76
     UNSATURATED ZONE =        4775718.68       UNSATURATED ZONE =         -24500.22
       SATURATED ZONE =       -1.3301D+07         SATURATED ZONE =           3960.59

 OVERALL BUDGET ERROR =         -30211.36           BUDGET ERROR =             -7.94


  PERCENT DISCREPANCY =             -0.01    PERCENT DISCREPANCY =             -0.01



1
 SUMMARY VOLUMETRIC BUDGET FOR GSFLOW 
 DATE: 08 20 1996              CUMULATIVE TIME STEP:    5803
 MODFLOW STRESS PERIOD      2     CURRENT TIME STEP:    5803     ITERATIONS:      10

 -----------------------------------------------------------------------------------

   CUMULATIVE VOLUMES               L**3   RATES FOR THIS TIME STEP           L**3/T
   ------------------                      ------------------------

                                     IN                                         IN
                                     --                                         --
        PRECIPITATION =        4.6531D+08          PRECIPITATION =                  
           STREAMFLOW =                               STREAMFLOW =                  
     GW BOUNDARY FLOW =                         GW BOUNDARY FLOW =                  


                                    OUT                                        OUT
                                    ---                                        ---
   EVAPOTRANSPIRATION =        2.8805D+08     EVAPOTRANSPIRATION =          16679.56
           STREAMFLOW =        1.8157D+08             STREAMFLOW =           6440.36
     GW BOUNDARY FLOW =        4199033.65       GW BOUNDARY FLOW =            725.11

   INFLOWS - OUTFLOWS =       -8511839.77     INFLOWS - OUTFLOWS =         -23845.02
             --------                                   --------

 TOTAL STORAGE CHANGE =       -8481574.24         STORAGE CHANGE =         -23839.43
       --------------                             --------------
         LAND SURFACE =        2.3269D-08           LAND SURFACE =                  
            SOIL ZONE =         187120.55              SOIL ZONE =          -3434.09
     UNSATURATED ZONE =        4609359.81       UNSATURATED ZONE =         -23227.70
       SATURATED ZONE =       -1.3278D+07         SATURATED ZONE =           2822.36

 OVERALL BUDGET ERROR =         -30265.54           BUDGET ERROR =             -5.59


  PERCENT DISCREPANCY =             -0.01    PERCENT DISCREPANCY =             -0.02



1
 SUMMARY VOLUMETRIC BUDGET FOR GSFLOW 
 DATE: 08 27 1996              CUMULATIVE TIME STEP:    5810
 MODFLOW STRESS PERIOD      2     CURRENT TIME STEP:    5810     ITERATIONS:      10

 -----------------------------------------------------------------------------------

   CUMULATIVE VOLUMES               L**3   RATES FOR THIS TIME STEP           L**3/T
   ------------------                      ------------------------

                                     IN                                         IN
                                     --                                         --
        PRECIPITATION =        4.6531D+08          PRECIPITATION =                  
           STREAMFLOW =                               STREAMFLOW =                  
     GW BOUNDARY FLOW =                         GW BOUNDARY FLOW =                  


                                    OUT                                        OUT
                                    ---                                        ---
   EVAPOTRANSPIRATION =        2.8819D+08     EVAPOTRANSPIRATION =          15283.19
           STREAMFLOW =        1.8162D+08             STREAMFLOW =           6280.71
     GW BOUNDARY FLOW =        4204107.66       GW BOUNDARY FLOW =            724.65

   INFLOWS - OUTFLOWS =       -8695019.65     INFLOWS - OUTFLOWS =         -22288.55
             --------                                   --------

 TOTAL STORAGE CHANGE =       -8664712.75         STORAGE CHANGE =         -22282.25
       --------------                             --------------
         LAND SURFACE =        2.3269D-08           LAND SURFACE =                  
            SOIL ZONE =         145773.35              SOIL ZONE =          -2135.95
     UNSATURATED ZONE =        4449063.56       UNSATURATED ZONE =         -22523.10
       SATURATED ZONE =       -1.3260D+07         SATURATED ZONE =           2376.80

 OVERALL BUDGET ERROR =         -30306.90           BUDGET ERROR =             -6.31


  PERCENT DISCREPANCY =             -0.01    PERCENT DISCREPANCY =             -0.03



1
 SUMMARY VOLUMETRIC BUDGET FOR GSFLOW 
 DATE: 09 03 1996              CUMULATIVE TIME STEP:    5817
 MODFLOW STRESS PERIOD      2     CURRENT TIME STEP:    5817     ITERATIONS:      10

 -----------------------------------------------------------------------------------

   CUMULATIVE VOLUMES               L**3   RATES FOR THIS TIME STEP           L**3/T
   ------------------                      ------------------------

                                     IN                                         IN
                                     --                                         --
        PRECIPITATION =        4.6531D+08          PRECIPITATION =                  
           STREAMFLOW =                               STREAMFLOW =                  
     GW BOUNDARY FLOW =                         GW BOUNDARY FLOW =                  


                                    OUT                                        OUT
                                    ---                                        ---
   EVAPOTRANSPIRATION =        2.8829D+08     EVAPOTRANSPIRATION =          14301.60
           STREAMFLOW =        1.8166D+08             STREAMFLOW =           6173.38
     GW BOUNDARY FLOW =        4209178.59       GW BOUNDARY FLOW =            724.25

   INFLOWS - OUTFLOWS =       -8849232.32     INFLOWS - OUTFLOWS =         -21199.23
             --------                                   --------

 TOTAL STORAGE CHANGE =       -8818895.52         STORAGE CHANGE =         -21193.14
       --------------                             --------------
         LAND SURFACE =        2.3269D-08           LAND SURFACE =                  
            SOIL ZONE =         131654.81              SOIL ZONE =          -1287.97
     UNSATURATED ZONE =        4295367.91       UNSATURATED ZONE =         -21836.42
       SATURATED ZONE =       -1.3246D+07         SATURATED ZONE =           1931.25

 OVERALL BUDGET ERROR =         -30336.80           BUDGET ERROR =             -6.09


  PERCENT DISCREPANCY =             -0.01    PERCENT DISCREPANCY =             -0.03



1
 SUMMARY VOLUMETRIC BUDGET FOR GSFLOW 
 DATE: 09 10 1996              CUMULATIVE TIME STEP:    5824
 MODFLOW STRESS PERIOD      2     CURRENT TIME STEP:    5824     ITERATIONS:       9

 -----------------------------------------------------------------------------------

   CUMULATIVE VOLUMES               L**3   RATES FOR THIS TIME STEP           L**3/T
   ------------------                      ------------------------

                                     IN                                         IN
                                     --                                         --
        PRECIPITATION =        4.6531D+08          PRECIPITATION =                  
           STREAMFLOW =                               STREAMFLOW =                  
     GW BOUNDARY FLOW =                         GW BOUNDARY FLOW =                  


                                    OUT                                        OUT
                                    ---                                        ---
   EVAPOTRANSPIRATION =        2.8838D+08     EVAPOTRANSPIRATION =          13562.24
           STREAMFLOW =        1.8170D+08             STREAMFLOW =           6079.08
     GW BOUNDARY FLOW =        4214246.87       GW BOUNDARY FLOW =            723.88

   INFLOWS - OUTFLOWS =       -8982285.29     INFLOWS - OUTFLOWS =         -20365.20
             --------                                   --------

 TOTAL STORAGE CHANGE =       -8951919.21         STORAGE CHANGE =         -20360.37
       --------------                             --------------
         LAND SURFACE =        2.3269D-08           LAND SURFACE =                  
            SOIL ZONE =         137074.62              SOIL ZONE =           -679.44
     UNSATURATED ZONE =        4146322.31       UNSATURATED ZONE =         -20819.72
       SATURATED ZONE =       -1.3235D+07         SATURATED ZONE =           1138.79

 OVERALL BUDGET ERROR =         -30366.08           BUDGET ERROR =             -4.83


  PERCENT DISCREPANCY =             -0.01    PERCENT DISCREPANCY =             -0.02



1
 SUMMARY VOLUMETRIC BUDGET FOR GSFLOW 
 DATE: 09 17 1996              CUMULATIVE TIME STEP:    5831
 MODFLOW STRESS PERIOD      2     CURRENT TIME STEP:    5831     ITERATIONS:       9

 -----------------------------------------------------------------------------------

   CUMULATIVE VOLUMES               L**3   RATES FOR THIS TIME STEP           L**3/T
   ------------------                      ------------------------

                                     IN                                         IN
                                     --                                         --
        PRECIPITATION =        4.6637D+08          PRECIPITATION =                  
           STREAMFLOW =                               STREAMFLOW =                  
     GW BOUNDARY FLOW =                         GW BOUNDARY FLOW =                  


                                    OUT                                        OUT
                                    ---                                        ---
   EVAPOTRANSPIRATION =        2.8856D+08     EVAPOTRANSPIRATION =          67792.43
           STREAMFLOW =        1.8177D+08             STREAMFLOW =           9923.16
     GW BOUNDARY FLOW =        4219315.04       GW BOUNDARY FLOW =            724.49

   INFLOWS - OUTFLOWS =       -8187825.33     INFLOWS - OUTFLOWS =         -78440.07
             --------                                   --------

 TOTAL STORAGE CHANGE =       -8157443.43         STORAGE CHANGE =         -78435.75
       --------------                             --------------
         LAND SURFACE =        2.3269D-08           LAND SURFACE =         -34505.06
            SOIL ZONE =        1066251.97              SOIL ZONE =         -24456.70
     UNSATURATED ZONE =        4003056.15       UNSATURATED ZONE =         -20142.11
       SATURATED ZONE =       -1.3227D+07         SATURATED ZONE =            668.13

 OVERALL BUDGET ERROR =         -30381.90           BUDGET ERROR =             -4.33


  PERCENT DISCREPANCY =             -0.01    PERCENT DISCREPANCY =             -0.01



1
 SUMMARY VOLUMETRIC BUDGET FOR GSFLOW 
 DATE: 09 24 1996              CUMULATIVE TIME STEP:    5838
 MODFLOW STRESS PERIOD      2     CURRENT TIME STEP:    5838     ITERATIONS:       9

 -----------------------------------------------------------------------------------

   CUMULATIVE VOLUMES               L**3   RATES FOR THIS TIME STEP           L**3/T
   ------------------                      ------------------------

                                     IN                                         IN
                                     --                                         --
        PRECIPITATION =        4.6637D+08          PRECIPITATION =                  
           STREAMFLOW =                               STREAMFLOW =                  
     GW BOUNDARY FLOW =                         GW BOUNDARY FLOW =                  


                                    OUT                                        OUT
                                    ---                                        ---
   EVAPOTRANSPIRATION =        2.8908D+08     EVAPOTRANSPIRATION =          55399.46
           STREAMFLOW =        1.8182D+08             STREAMFLOW =           6257.19
     GW BOUNDARY FLOW =        4224381.57       GW BOUNDARY FLOW =            723.40

   INFLOWS - OUTFLOWS =       -8753851.65     INFLOWS - OUTFLOWS =         -62380.05
             --------                                   --------

 TOTAL STORAGE CHANGE =       -8723457.26         STORAGE CHANGE =         -62375.32
       --------------                             --------------
         LAND SURFACE =        2.3269D-08           LAND SURFACE =                  
            SOIL ZONE =         635926.92              SOIL ZONE =         -43096.60
     UNSATURATED ZONE =        3866892.81       UNSATURATED ZONE =         -19063.16
       SATURATED ZONE =       -1.3226D+07         SATURATED ZONE =           -215.56

 OVERALL BUDGET ERROR =         -30394.39           BUDGET ERROR =             -4.73


  PERCENT DISCREPANCY =             -0.01    PERCENT DISCREPANCY =             -0.01



