1
 SUMMARY VOLUMETRIC BUDGET FOR GSFLOW 
 DATE: 10 07 1980              CUMULATIVE TIME STEP:       7
 MODFLOW STRESS PERIOD      2     CURRENT TIME STEP:       7     ITERATIONS:       4

 -----------------------------------------------------------------------------------

   CUMULATIVE VOLUMES               L**3   RATES FOR THIS TIME STEP           L**3/T
   ------------------                      ------------------------

                                     IN                                         IN
                                     --                                         --
        PRECIPITATION =                            PRECIPITATION =                  
           STREAMFLOW =                               STREAMFLOW =                  
     GW BOUNDARY FLOW =                         GW BOUNDARY FLOW =                  


                                    OUT                                        OUT
                                    ---                                        ---
   EVAPOTRANSPIRATION =          65405.90     EVAPOTRANSPIRATION =           9159.77
           STREAMFLOW =          43081.80             STREAMFLOW =           6083.36
     GW BOUNDARY FLOW =           5067.91       GW BOUNDARY FLOW =            723.89

   INFLOWS - OUTFLOWS =        -113555.61     INFLOWS - OUTFLOWS =         -15967.02
             --------                                   --------

 TOTAL STORAGE CHANGE =        -113316.99         STORAGE CHANGE =         -15932.21
       --------------                             --------------
         LAND SURFACE =                             LAND SURFACE =                  
            SOIL ZONE =          45037.57              SOIL ZONE =           6526.54
     UNSATURATED ZONE =        -144965.99       UNSATURATED ZONE =         -20382.37
       SATURATED ZONE =         -13388.57         SATURATED ZONE =          -2076.38

 OVERALL BUDGET ERROR =           -238.62           BUDGET ERROR =            -34.82


  PERCENT DISCREPANCY =             -0.21    PERCENT DISCREPANCY =             -0.22



1
 SUMMARY VOLUMETRIC BUDGET FOR GSFLOW 
 DATE: 10 14 1980              CUMULATIVE TIME STEP:      14
 MODFLOW STRESS PERIOD      2     CURRENT TIME STEP:      14     ITERATIONS:       5

 -----------------------------------------------------------------------------------

   CUMULATIVE VOLUMES               L**3   RATES FOR THIS TIME STEP           L**3/T
   ------------------                      ------------------------

                                     IN                                         IN
                                     --                                         --
        PRECIPITATION =         650779.83          PRECIPITATION =         164754.40
           STREAMFLOW =                               STREAMFLOW =                  
     GW BOUNDARY FLOW =                         GW BOUNDARY FLOW =                  


                                    OUT                                        OUT
                                    ---                                        ---
   EVAPOTRANSPIRATION =         160180.96     EVAPOTRANSPIRATION =          11485.16
           STREAMFLOW =          94488.98             STREAMFLOW =           7705.40
     GW BOUNDARY FLOW =          10135.83       GW BOUNDARY FLOW =            724.16

   INFLOWS - OUTFLOWS =         385974.06     INFLOWS - OUTFLOWS =         144839.68
             --------                                   --------

 TOTAL STORAGE CHANGE =         386457.57         STORAGE CHANGE =         144874.00
       --------------                             --------------
         LAND SURFACE =         183750.35           LAND SURFACE =         130549.56
            SOIL ZONE =         516101.90              SOIL ZONE =          36427.92
     UNSATURATED ZONE =        -284671.69       UNSATURATED ZONE =         -19599.13
       SATURATED ZONE =         -28722.99         SATURATED ZONE =          -2504.34

 OVERALL BUDGET ERROR =           -483.50           BUDGET ERROR =            -34.32


  PERCENT DISCREPANCY =             -0.07    PERCENT DISCREPANCY =             -0.02



1
 SUMMARY VOLUMETRIC BUDGET FOR GSFLOW 
 DATE: 10 21 1980              CUMULATIVE TIME STEP:      21
 MODFLOW STRESS PERIOD      2     CURRENT TIME STEP:      21     ITERATIONS:       5

 -----------------------------------------------------------------------------------

   CUMULATIVE VOLUMES               L**3   RATES FOR THIS TIME STEP           L**3/T
   ------------------                      ------------------------

                                     IN                                         IN
                                     --                                         --
        PRECIPITATION =         733157.03          PRECIPITATION =                  
           STREAMFLOW =                               STREAMFLOW =                  
     GW BOUNDARY FLOW =                         GW BOUNDARY FLOW =                  


                                    OUT                                        OUT
                                    ---                                        ---
   EVAPOTRANSPIRATION =         391022.20     EVAPOTRANSPIRATION =          34555.96
           STREAMFLOW =         145916.93             STREAMFLOW =           6945.94
     GW BOUNDARY FLOW =          15204.01       GW BOUNDARY FLOW =            723.92

   INFLOWS - OUTFLOWS =         181013.89     INFLOWS - OUTFLOWS =         -42225.82
             --------                                   --------

 TOTAL STORAGE CHANGE =         181739.53         STORAGE CHANGE =         -42194.34
       --------------                             --------------
         LAND SURFACE =                             LAND SURFACE =                  
            SOIL ZONE =         648863.57              SOIL ZONE =         -20233.36
     UNSATURATED ZONE =        -418557.84       UNSATURATED ZONE =         -18774.16
       SATURATED ZONE =         -48566.20         SATURATED ZONE =          -3186.83

 OVERALL BUDGET ERROR =           -725.64           BUDGET ERROR =            -31.47


  PERCENT DISCREPANCY =             -0.10    PERCENT DISCREPANCY =             -0.07



1
 SUMMARY VOLUMETRIC BUDGET FOR GSFLOW 
 DATE: 10 28 1980              CUMULATIVE TIME STEP:      28
 MODFLOW STRESS PERIOD      2     CURRENT TIME STEP:      28     ITERATIONS:       6

 -----------------------------------------------------------------------------------

   CUMULATIVE VOLUMES               L**3   RATES FOR THIS TIME STEP           L**3/T
   ------------------                      ------------------------

                                     IN                                         IN
                                     --                                         --
        PRECIPITATION =        1070903.53          PRECIPITATION =                  
           STREAMFLOW =                               STREAMFLOW =                  
     GW BOUNDARY FLOW =                         GW BOUNDARY FLOW =                  


                                    OUT                                        OUT
                                    ---                                        ---
   EVAPOTRANSPIRATION =         577170.35     EVAPOTRANSPIRATION =          24710.41
           STREAMFLOW =         200730.69             STREAMFLOW =           8027.19
     GW BOUNDARY FLOW =          20271.64       GW BOUNDARY FLOW =            724.02

   INFLOWS - OUTFLOWS =         272730.85     INFLOWS - OUTFLOWS =         -33461.63
             --------                                   --------

 TOTAL STORAGE CHANGE =         273676.59         STORAGE CHANGE =         -33431.62
       --------------                             --------------
         LAND SURFACE =          20571.52           LAND SURFACE =         -29890.86
            SOIL ZONE =         872096.68              SOIL ZONE =          18048.38
     UNSATURATED ZONE =        -546598.93       UNSATURATED ZONE =         -17918.47
       SATURATED ZONE =         -72392.68         SATURATED ZONE =          -3670.67

 OVERALL BUDGET ERROR =           -945.74           BUDGET ERROR =            -30.00


  PERCENT DISCREPANCY =             -0.09    PERCENT DISCREPANCY =             -0.09



1
 SUMMARY VOLUMETRIC BUDGET FOR GSFLOW 
 DATE: 11 04 1980              CUMULATIVE TIME STEP:      35
 MODFLOW STRESS PERIOD      2     CURRENT TIME STEP:      35     ITERATIONS:       5

 -----------------------------------------------------------------------------------

   CUMULATIVE VOLUMES               L**3   RATES FOR THIS TIME STEP           L**3/T
   ------------------                      ------------------------

                                     IN                                         IN
                                     --                                         --
        PRECIPITATION =        1070903.53          PRECIPITATION =                  
           STREAMFLOW =                               STREAMFLOW =                  
     GW BOUNDARY FLOW =                         GW BOUNDARY FLOW =                  


                                    OUT                                        OUT
                                    ---                                        ---
   EVAPOTRANSPIRATION =         908100.50     EVAPOTRANSPIRATION =          46968.35
           STREAMFLOW =         253766.10             STREAMFLOW =           7119.17
     GW BOUNDARY FLOW =          25338.99       GW BOUNDARY FLOW =            723.82

   INFLOWS - OUTFLOWS =        -116302.06     INFLOWS - OUTFLOWS =         -54811.34
             --------                                   --------

 TOTAL STORAGE CHANGE =        -115148.68         STORAGE CHANGE =         -54778.44
       --------------                             --------------
         LAND SURFACE =                             LAND SURFACE =                  
            SOIL ZONE =         655113.31              SOIL ZONE =         -33163.50
     UNSATURATED ZONE =        -669480.15       UNSATURATED ZONE =         -17303.12
       SATURATED ZONE =        -100781.85         SATURATED ZONE =          -4311.83

 OVERALL BUDGET ERROR =          -1153.38           BUDGET ERROR =            -32.89


  PERCENT DISCREPANCY =             -0.10    PERCENT DISCREPANCY =             -0.06



1
 SUMMARY VOLUMETRIC BUDGET FOR GSFLOW 
 DATE: 11 11 1980              CUMULATIVE TIME STEP:      42
 MODFLOW STRESS PERIOD      2     CURRENT TIME STEP:      42     ITERATIONS:       5

 -----------------------------------------------------------------------------------

   CUMULATIVE VOLUMES               L**3   RATES FOR THIS TIME STEP           L**3/T
   ------------------                      ------------------------

                                     IN                                         IN
                                     --                                         --
        PRECIPITATION =        1573762.54          PRECIPITATION =         255182.19
           STREAMFLOW =                               STREAMFLOW =                  
     GW BOUNDARY FLOW =                         GW BOUNDARY FLOW =                  


                                    OUT                                        OUT
                                    ---                                        ---
   EVAPOTRANSPIRATION =        1115767.04     EVAPOTRANSPIRATION =          18595.72
           STREAMFLOW =         311091.59             STREAMFLOW =          10968.82
     GW BOUNDARY FLOW =          30406.12       GW BOUNDARY FLOW =            724.11

   INFLOWS - OUTFLOWS =         116497.80     INFLOWS - OUTFLOWS =         224893.53
             --------                                   --------

 TOTAL STORAGE CHANGE =         117859.77         STORAGE CHANGE =         224922.44
       --------------                             --------------
         LAND SURFACE =          76960.22           LAND SURFACE =          76747.38
            SOIL ZONE =         959964.39              SOIL ZONE =         168723.15
     UNSATURATED ZONE =        -787489.95       UNSATURATED ZONE =         -16457.47
       SATURATED ZONE =        -131574.89         SATURATED ZONE =          -4090.63

 OVERALL BUDGET ERROR =          -1361.97           BUDGET ERROR =            -28.90


  PERCENT DISCREPANCY =             -0.09    PERCENT DISCREPANCY =             -0.01



1
 SUMMARY VOLUMETRIC BUDGET FOR GSFLOW 
 DATE: 11 18 1980              CUMULATIVE TIME STEP:      49
 MODFLOW STRESS PERIOD      2     CURRENT TIME STEP:      49     ITERATIONS:       5

 -----------------------------------------------------------------------------------

   CUMULATIVE VOLUMES               L**3   RATES FOR THIS TIME STEP           L**3/T
   ------------------                      ------------------------

                                     IN                                         IN
                                     --                                         --
        PRECIPITATION =        1573762.54          PRECIPITATION =                  
           STREAMFLOW =                               STREAMFLOW =                  
     GW BOUNDARY FLOW =                         GW BOUNDARY FLOW =                  


                                    OUT                                        OUT
                                    ---                                        ---
   EVAPOTRANSPIRATION =        1206326.07     EVAPOTRANSPIRATION =          16391.43
           STREAMFLOW =         374738.31             STREAMFLOW =           9274.67
     GW BOUNDARY FLOW =          35474.79       GW BOUNDARY FLOW =            724.11

   INFLOWS - OUTFLOWS =         -42776.63     INFLOWS - OUTFLOWS =         -26390.21
             --------                                   --------

 TOTAL STORAGE CHANGE =         -41238.02         STORAGE CHANGE =         -26367.35
       --------------                             --------------
         LAND SURFACE =           8139.47           LAND SURFACE =          -4965.50
            SOIL ZONE =        1016664.33              SOIL ZONE =           -462.84
     UNSATURATED ZONE =        -900826.68       UNSATURATED ZONE =         -15951.90
       SATURATED ZONE =        -165215.14         SATURATED ZONE =          -4987.10

 OVERALL BUDGET ERROR =          -1538.61           BUDGET ERROR =            -22.86


  PERCENT DISCREPANCY =             -0.10    PERCENT DISCREPANCY =             -0.09



1
 SUMMARY VOLUMETRIC BUDGET FOR GSFLOW 
 DATE: 11 25 1980              CUMULATIVE TIME STEP:      56
 MODFLOW STRESS PERIOD      2     CURRENT TIME STEP:      56     ITERATIONS:       7

 -----------------------------------------------------------------------------------

   CUMULATIVE VOLUMES               L**3   RATES FOR THIS TIME STEP           L**3/T
   ------------------                      ------------------------

                                     IN                                         IN
                                     --                                         --
        PRECIPITATION =        1648816.13          PRECIPITATION =                  
           STREAMFLOW =                               STREAMFLOW =                  
     GW BOUNDARY FLOW =                         GW BOUNDARY FLOW =                  


                                    OUT                                        OUT
                                    ---                                        ---
   EVAPOTRANSPIRATION =        1288496.46     EVAPOTRANSPIRATION =           9281.23
           STREAMFLOW =         439829.80             STREAMFLOW =           9395.64
     GW BOUNDARY FLOW =          40543.58       GW BOUNDARY FLOW =            724.12

   INFLOWS - OUTFLOWS =        -120053.71     INFLOWS - OUTFLOWS =         -19400.99
             --------                                   --------

 TOTAL STORAGE CHANGE =        -118342.90         STORAGE CHANGE =         -19376.12
       --------------                             --------------
         LAND SURFACE =          54136.53           LAND SURFACE =          -9258.02
            SOIL ZONE =        1040073.44              SOIL ZONE =          10781.75
     UNSATURATED ZONE =       -1009993.80       UNSATURATED ZONE =         -15326.49
       SATURATED ZONE =        -202559.07         SATURATED ZONE =          -5573.36

 OVERALL BUDGET ERROR =          -1710.81           BUDGET ERROR =            -24.87


  PERCENT DISCREPANCY =             -0.10    PERCENT DISCREPANCY =             -0.13



1
 SUMMARY VOLUMETRIC BUDGET FOR GSFLOW 
 DATE: 12 02 1980              CUMULATIVE TIME STEP:      63
 MODFLOW STRESS PERIOD      2     CURRENT TIME STEP:      63     ITERATIONS:       5

 -----------------------------------------------------------------------------------

   CUMULATIVE VOLUMES               L**3   RATES FOR THIS TIME STEP           L**3/T
   ------------------                      ------------------------

                                     IN                                         IN
                                     --                                         --
        PRECIPITATION =        2076621.55          PRECIPITATION =                  
           STREAMFLOW =                               STREAMFLOW =                  
     GW BOUNDARY FLOW =                         GW BOUNDARY FLOW =                  


                                    OUT                                        OUT
                                    ---                                        ---
   EVAPOTRANSPIRATION =        1477496.66     EVAPOTRANSPIRATION =          32852.97
           STREAMFLOW =         516996.23             STREAMFLOW =          13642.93
     GW BOUNDARY FLOW =          45613.68       GW BOUNDARY FLOW =            724.63

   INFLOWS - OUTFLOWS =          36514.97     INFLOWS - OUTFLOWS =         -47220.53
             --------                                   --------

 TOTAL STORAGE CHANGE =          38394.19         STORAGE CHANGE =         -47198.95
       --------------                             --------------
         LAND SURFACE =         157031.19           LAND SURFACE =         -76789.76
            SOIL ZONE =        1234133.68              SOIL ZONE =          47638.11
     UNSATURATED ZONE =       -1111905.05       UNSATURATED ZONE =         -13148.59
       SATURATED ZONE =        -240865.63         SATURATED ZONE =          -4898.70

 OVERALL BUDGET ERROR =          -1879.22           BUDGET ERROR =            -21.58


  PERCENT DISCREPANCY =             -0.09    PERCENT DISCREPANCY =             -0.05



1
 SUMMARY VOLUMETRIC BUDGET FOR GSFLOW 
 DATE: 12 09 1980              CUMULATIVE TIME STEP:      70
 MODFLOW STRESS PERIOD      2     CURRENT TIME STEP:      70     ITERATIONS:       6

 -----------------------------------------------------------------------------------

   CUMULATIVE VOLUMES               L**3   RATES FOR THIS TIME STEP           L**3/T
   ------------------                      ------------------------

                                     IN                                         IN
                                     --                                         --
        PRECIPITATION =        4284363.63          PRECIPITATION =                  
           STREAMFLOW =                               STREAMFLOW =                  
     GW BOUNDARY FLOW =                         GW BOUNDARY FLOW =                  


                                    OUT                                        OUT
                                    ---                                        ---
   EVAPOTRANSPIRATION =        1503135.44     EVAPOTRANSPIRATION =           3258.35
           STREAMFLOW =         606342.15             STREAMFLOW =          13148.81
     GW BOUNDARY FLOW =          50686.76       GW BOUNDARY FLOW =            724.82

   INFLOWS - OUTFLOWS =        2124199.28     INFLOWS - OUTFLOWS =         -17131.98
             --------                                   --------

 TOTAL STORAGE CHANGE =        2126232.13         STORAGE CHANGE =         -17110.77
       --------------                             --------------
         LAND SURFACE =        2337504.37           LAND SURFACE =          -3258.35
            SOIL ZONE =        1280029.40              SOIL ZONE =           6403.66
     UNSATURATED ZONE =       -1210022.40       UNSATURATED ZONE =         -14154.29
       SATURATED ZONE =        -281279.24         SATURATED ZONE =          -6101.78

 OVERALL BUDGET ERROR =          -2032.85           BUDGET ERROR =            -21.21


  PERCENT DISCREPANCY =             -0.05    PERCENT DISCREPANCY =             -0.12



1
 SUMMARY VOLUMETRIC BUDGET FOR GSFLOW 
 DATE: 12 16 1980              CUMULATIVE TIME STEP:      77
 MODFLOW STRESS PERIOD      2     CURRENT TIME STEP:      77     ITERATIONS:       5

 -----------------------------------------------------------------------------------

   CUMULATIVE VOLUMES               L**3   RATES FOR THIS TIME STEP           L**3/T
   ------------------                      ------------------------

                                     IN                                         IN
                                     --                                         --
        PRECIPITATION =        4284363.63          PRECIPITATION =                  
           STREAMFLOW =                               STREAMFLOW =                  
     GW BOUNDARY FLOW =                         GW BOUNDARY FLOW =                  


                                    OUT                                        OUT
                                    ---                                        ---
   EVAPOTRANSPIRATION =        1647136.85     EVAPOTRANSPIRATION =          33864.49
           STREAMFLOW =         716039.33             STREAMFLOW =          22885.87
     GW BOUNDARY FLOW =          55762.43       GW BOUNDARY FLOW =            725.66

   INFLOWS - OUTFLOWS =        1865425.03     INFLOWS - OUTFLOWS =         -57476.01
             --------                                   --------

 TOTAL STORAGE CHANGE =        1867632.15         STORAGE CHANGE =         -57451.34
       --------------                             --------------
         LAND SURFACE =        2017009.19           LAND SURFACE =        -133032.47
            SOIL ZONE =        1474381.85              SOIL ZONE =          89787.09
     UNSATURATED ZONE =       -1300491.22       UNSATURATED ZONE =          -9448.71
       SATURATED ZONE =        -323267.67         SATURATED ZONE =          -4757.25

 OVERALL BUDGET ERROR =          -2207.13           BUDGET ERROR =            -24.68


  PERCENT DISCREPANCY =             -0.05    PERCENT DISCREPANCY =             -0.04



1
 SUMMARY VOLUMETRIC BUDGET FOR GSFLOW 
 DATE: 12 23 1980              CUMULATIVE TIME STEP:      84
 MODFLOW STRESS PERIOD      2     CURRENT TIME STEP:      84     ITERATIONS:       8

 -----------------------------------------------------------------------------------

   CUMULATIVE VOLUMES               L**3   RATES FOR THIS TIME STEP           L**3/T
   ------------------                      ------------------------

                                     IN                                         IN
                                     --                                         --
        PRECIPITATION =        4516757.54          PRECIPITATION =                  
           STREAMFLOW =                               STREAMFLOW =                  
     GW BOUNDARY FLOW =                         GW BOUNDARY FLOW =                  


                                    OUT                                        OUT
                                    ---                                        ---
   EVAPOTRANSPIRATION =        1839791.47     EVAPOTRANSPIRATION =          33322.86
           STREAMFLOW =         937571.95             STREAMFLOW =          30479.22
     GW BOUNDARY FLOW =          60853.57       GW BOUNDARY FLOW =            728.04

   INFLOWS - OUTFLOWS =        1678540.55     INFLOWS - OUTFLOWS =         -64530.13
             --------                                   --------

 TOTAL STORAGE CHANGE =        1680879.08         STORAGE CHANGE =         -64514.16
       --------------                             --------------
         LAND SURFACE =        1383036.34           LAND SURFACE =         -50553.56
            SOIL ZONE =        1993022.12              SOIL ZONE =          -3661.80
     UNSATURATED ZONE =       -1343076.79       UNSATURATED ZONE =          -5811.09
       SATURATED ZONE =        -352102.59         SATURATED ZONE =          -4487.71

 OVERALL BUDGET ERROR =          -2338.53           BUDGET ERROR =            -15.97


  PERCENT DISCREPANCY =             -0.05    PERCENT DISCREPANCY =             -0.02



1
 SUMMARY VOLUMETRIC BUDGET FOR GSFLOW 
 DATE: 12 30 1980              CUMULATIVE TIME STEP:      91
 MODFLOW STRESS PERIOD      2     CURRENT TIME STEP:      91     ITERATIONS:       7

 -----------------------------------------------------------------------------------

   CUMULATIVE VOLUMES               L**3   RATES FOR THIS TIME STEP           L**3/T
   ------------------                      ------------------------

                                     IN                                         IN
                                     --                                         --
        PRECIPITATION =        4516757.54          PRECIPITATION =                  
           STREAMFLOW =                               STREAMFLOW =                  
     GW BOUNDARY FLOW =                         GW BOUNDARY FLOW =                  


                                    OUT                                        OUT
                                    ---                                        ---
   EVAPOTRANSPIRATION =        2153949.17     EVAPOTRANSPIRATION =          41222.91
           STREAMFLOW =        1187564.82             STREAMFLOW =          28315.66
     GW BOUNDARY FLOW =          65954.65       GW BOUNDARY FLOW =            728.70

   INFLOWS - OUTFLOWS =        1109288.90     INFLOWS - OUTFLOWS =         -70267.27
             --------                                   --------

 TOTAL STORAGE CHANGE =        1111722.95         STORAGE CHANGE =         -70256.91
       --------------                             --------------
         LAND SURFACE =         578000.37           LAND SURFACE =         -42011.43
            SOIL ZONE =        2258106.64              SOIL ZONE =         -21489.21
     UNSATURATED ZONE =       -1347604.54       UNSATURATED ZONE =          -2674.40
       SATURATED ZONE =        -376779.52         SATURATED ZONE =          -4081.87

 OVERALL BUDGET ERROR =          -2434.05           BUDGET ERROR =            -10.36


  PERCENT DISCREPANCY =             -0.05    PERCENT DISCREPANCY =             -0.01



1
 SUMMARY VOLUMETRIC BUDGET FOR GSFLOW 
 DATE: 01 06 1981              CUMULATIVE TIME STEP:      98
 MODFLOW STRESS PERIOD      2     CURRENT TIME STEP:      98     ITERATIONS:       6

 -----------------------------------------------------------------------------------

   CUMULATIVE VOLUMES               L**3   RATES FOR THIS TIME STEP           L**3/T
   ------------------                      ------------------------

                                     IN                                         IN
                                     --                                         --
        PRECIPITATION =        5004445.43          PRECIPITATION =                  
           STREAMFLOW =                               STREAMFLOW =                  
     GW BOUNDARY FLOW =                         GW BOUNDARY FLOW =                  


                                    OUT                                        OUT
                                    ---                                        ---
   EVAPOTRANSPIRATION =        2353662.52     EVAPOTRANSPIRATION =          18967.97
           STREAMFLOW =        1339228.17             STREAMFLOW =          20482.26
     GW BOUNDARY FLOW =          71048.06       GW BOUNDARY FLOW =            727.03

   INFLOWS - OUTFLOWS =        1240506.68     INFLOWS - OUTFLOWS =         -40177.27
             --------                                   --------

 TOTAL STORAGE CHANGE =        1243036.28         STORAGE CHANGE =         -40165.37
       --------------                             --------------
         LAND SURFACE =         839153.53           LAND SURFACE =         -25670.38
            SOIL ZONE =        2227772.82              SOIL ZONE =           2208.87
     UNSATURATED ZONE =       -1409725.41       UNSATURATED ZONE =         -10728.18
       SATURATED ZONE =        -414164.66         SATURATED ZONE =          -5975.69

 OVERALL BUDGET ERROR =          -2529.60           BUDGET ERROR =            -11.90


  PERCENT DISCREPANCY =             -0.05    PERCENT DISCREPANCY =             -0.03



1
 SUMMARY VOLUMETRIC BUDGET FOR GSFLOW 
 DATE: 01 13 1981              CUMULATIVE TIME STEP:     105
 MODFLOW STRESS PERIOD      2     CURRENT TIME STEP:     105     ITERATIONS:       5

 -----------------------------------------------------------------------------------

   CUMULATIVE VOLUMES               L**3   RATES FOR THIS TIME STEP           L**3/T
   ------------------                      ------------------------

                                     IN                                         IN
                                     --                                         --
        PRECIPITATION =        5004445.43          PRECIPITATION =                  
           STREAMFLOW =                               STREAMFLOW =                  
     GW BOUNDARY FLOW =                         GW BOUNDARY FLOW =                  


                                    OUT                                        OUT
                                    ---                                        ---
   EVAPOTRANSPIRATION =        2550408.99     EVAPOTRANSPIRATION =          40920.22
           STREAMFLOW =        1491334.41             STREAMFLOW =          22104.94
     GW BOUNDARY FLOW =          76135.85       GW BOUNDARY FLOW =            726.74

   INFLOWS - OUTFLOWS =         886566.18     INFLOWS - OUTFLOWS =         -63751.90
             --------                                   --------

 TOTAL STORAGE CHANGE =         889185.59         STORAGE CHANGE =         -63735.87
       --------------                             --------------
         LAND SURFACE =         591944.46           LAND SURFACE =         -46174.11
            SOIL ZONE =        2223620.55              SOIL ZONE =          -4605.78
     UNSATURATED ZONE =       -1469396.41       UNSATURATED ZONE =          -6745.95
       SATURATED ZONE =        -456983.01         SATURATED ZONE =          -6210.03

 OVERALL BUDGET ERROR =          -2619.41           BUDGET ERROR =            -16.04


  PERCENT DISCREPANCY =             -0.05    PERCENT DISCREPANCY =             -0.03



1
 SUMMARY VOLUMETRIC BUDGET FOR GSFLOW 
 DATE: 01 20 1981              CUMULATIVE TIME STEP:     112
 MODFLOW STRESS PERIOD      2     CURRENT TIME STEP:     112     ITERATIONS:       6

 -----------------------------------------------------------------------------------

   CUMULATIVE VOLUMES               L**3   RATES FOR THIS TIME STEP           L**3/T
   ------------------                      ------------------------

                                     IN                                         IN
                                     --                                         --
        PRECIPITATION =        5170466.84          PRECIPITATION =          41505.35
           STREAMFLOW =                               STREAMFLOW =                  
     GW BOUNDARY FLOW =                         GW BOUNDARY FLOW =                  


                                    OUT                                        OUT
                                    ---                                        ---
   EVAPOTRANSPIRATION =        2810678.33     EVAPOTRANSPIRATION =          30806.94
           STREAMFLOW =        1636113.78             STREAMFLOW =          20000.51
     GW BOUNDARY FLOW =          81221.50       GW BOUNDARY FLOW =            726.37

   INFLOWS - OUTFLOWS =         642453.23     INFLOWS - OUTFLOWS =         -10028.47
             --------                                   --------

 TOTAL STORAGE CHANGE =         645176.59         STORAGE CHANGE =         -10012.09
       --------------                             --------------
         LAND SURFACE =         441730.68           LAND SURFACE =           9579.33
            SOIL ZONE =        2201520.17              SOIL ZONE =         -11426.24
     UNSATURATED ZONE =       -1495572.79       UNSATURATED ZONE =          -1451.74
       SATURATED ZONE =        -502501.47         SATURATED ZONE =          -6713.44

 OVERALL BUDGET ERROR =          -2723.36           BUDGET ERROR =            -16.38


  PERCENT DISCREPANCY =             -0.05    PERCENT DISCREPANCY =             -0.03



1
 SUMMARY VOLUMETRIC BUDGET FOR GSFLOW 
 DATE: 01 27 1981              CUMULATIVE TIME STEP:     119
 MODFLOW STRESS PERIOD      2     CURRENT TIME STEP:     119     ITERATIONS:       6

 -----------------------------------------------------------------------------------

   CUMULATIVE VOLUMES               L**3   RATES FOR THIS TIME STEP           L**3/T
   ------------------                      ------------------------

                                     IN                                         IN
                                     --                                         --
        PRECIPITATION =        8646540.08          PRECIPITATION =        2936503.63
           STREAMFLOW =                               STREAMFLOW =                  
     GW BOUNDARY FLOW =                         GW BOUNDARY FLOW =                  


                                    OUT                                        OUT
                                    ---                                        ---
   EVAPOTRANSPIRATION =        3033996.62     EVAPOTRANSPIRATION =          12639.57
           STREAMFLOW =        1778944.99             STREAMFLOW =          18501.99
     GW BOUNDARY FLOW =          86305.58       GW BOUNDARY FLOW =            726.06

   INFLOWS - OUTFLOWS =        3747292.88     INFLOWS - OUTFLOWS =        2904636.01
             --------                                   --------

 TOTAL STORAGE CHANGE =        3750094.08         STORAGE CHANGE =        2904645.69
       --------------                             --------------
         LAND SURFACE =        3576156.46           LAND SURFACE =        2923864.12
            SOIL ZONE =        2208411.88              SOIL ZONE =          -6769.18
     UNSATURATED ZONE =       -1485791.54       UNSATURATED ZONE =          -5335.65
       SATURATED ZONE =        -548682.73         SATURATED ZONE =          -7113.59

 OVERALL BUDGET ERROR =          -2801.20           BUDGET ERROR =             -9.69


  PERCENT DISCREPANCY =             -0.03    PERCENT DISCREPANCY =             -0.00



1
 SUMMARY VOLUMETRIC BUDGET FOR GSFLOW 
 DATE: 02 03 1981              CUMULATIVE TIME STEP:     126
 MODFLOW STRESS PERIOD      2     CURRENT TIME STEP:     126     ITERATIONS:       9

 -----------------------------------------------------------------------------------

   CUMULATIVE VOLUMES               L**3   RATES FOR THIS TIME STEP           L**3/T
   ------------------                      ------------------------

                                     IN                                         IN
                                     --                                         --
        PRECIPITATION =        1.1739D+07          PRECIPITATION =                  
           STREAMFLOW =                               STREAMFLOW =                  
     GW BOUNDARY FLOW =                         GW BOUNDARY FLOW =                  


                                    OUT                                        OUT
                                    ---                                        ---
   EVAPOTRANSPIRATION =        3069187.99     EVAPOTRANSPIRATION =           7106.06
           STREAMFLOW =        1905256.10             STREAMFLOW =          17974.33
     GW BOUNDARY FLOW =          91386.89       GW BOUNDARY FLOW =            725.84

   INFLOWS - OUTFLOWS =        6672857.79     INFLOWS - OUTFLOWS =         -25806.23
             --------                                   --------

 TOTAL STORAGE CHANGE =        6675710.30         STORAGE CHANGE =         -25800.88
       --------------                             --------------
         LAND SURFACE =        6633113.80           LAND SURFACE =          -7106.06
            SOIL ZONE =        2199066.02              SOIL ZONE =            526.55
     UNSATURATED ZONE =       -1555209.33       UNSATURATED ZONE =         -11363.31
       SATURATED ZONE =        -601260.19         SATURATED ZONE =          -7858.05

 OVERALL BUDGET ERROR =          -2852.51           BUDGET ERROR =             -5.35


  PERCENT DISCREPANCY =             -0.02    PERCENT DISCREPANCY =             -0.02



1
 SUMMARY VOLUMETRIC BUDGET FOR GSFLOW 
 DATE: 02 10 1981              CUMULATIVE TIME STEP:     133
 MODFLOW STRESS PERIOD      2     CURRENT TIME STEP:     133     ITERATIONS:       6

 -----------------------------------------------------------------------------------

   CUMULATIVE VOLUMES               L**3   RATES FOR THIS TIME STEP           L**3/T
   ------------------                      ------------------------

                                     IN                                         IN
                                     --                                         --
        PRECIPITATION =        1.1838D+07          PRECIPITATION =                  
           STREAMFLOW =                               STREAMFLOW =                  
     GW BOUNDARY FLOW =                         GW BOUNDARY FLOW =                  


                                    OUT                                        OUT
                                    ---                                        ---
   EVAPOTRANSPIRATION =        3190291.50     EVAPOTRANSPIRATION =          32343.27
           STREAMFLOW =        2031283.11             STREAMFLOW =          18028.58
     GW BOUNDARY FLOW =          96467.81       GW BOUNDARY FLOW =            725.84

   INFLOWS - OUTFLOWS =        6520210.85     INFLOWS - OUTFLOWS =         -51097.70
             --------                                   --------

 TOTAL STORAGE CHANGE =        6523138.11         STORAGE CHANGE =         -51086.02
       --------------                             --------------
         LAND SURFACE =        6611574.79           LAND SURFACE =         -32343.27
            SOIL ZONE =        2203319.60              SOIL ZONE =            539.63
     UNSATURATED ZONE =       -1631740.10       UNSATURATED ZONE =         -10648.61
       SATURATED ZONE =        -660016.19         SATURATED ZONE =          -8633.77

 OVERALL BUDGET ERROR =          -2927.26           BUDGET ERROR =            -11.68


  PERCENT DISCREPANCY =             -0.02    PERCENT DISCREPANCY =             -0.02



1
 SUMMARY VOLUMETRIC BUDGET FOR GSFLOW 
 DATE: 02 17 1981              CUMULATIVE TIME STEP:     140
 MODFLOW STRESS PERIOD      2     CURRENT TIME STEP:     140     ITERATIONS:      10

 -----------------------------------------------------------------------------------

   CUMULATIVE VOLUMES               L**3   RATES FOR THIS TIME STEP           L**3/T
   ------------------                      ------------------------

                                     IN                                         IN
                                     --                                         --
        PRECIPITATION =        1.2765D+07          PRECIPITATION =          68929.28
           STREAMFLOW =                               STREAMFLOW =                  
     GW BOUNDARY FLOW =                         GW BOUNDARY FLOW =                  


                                    OUT                                        OUT
                                    ---                                        ---
   EVAPOTRANSPIRATION =        3511252.92     EVAPOTRANSPIRATION =          57064.08
           STREAMFLOW =        2551989.26             STREAMFLOW =         122193.06
     GW BOUNDARY FLOW =         101576.00       GW BOUNDARY FLOW =            734.27

   INFLOWS - OUTFLOWS =        6600150.93     INFLOWS - OUTFLOWS =        -111062.14
             --------                                   --------

 TOTAL STORAGE CHANGE =        6603169.33         STORAGE CHANGE =        -111048.56
       --------------                             --------------
         LAND SURFACE =        5715890.69           LAND SURFACE =        -263533.59
            SOIL ZONE =        2955592.24              SOIL ZONE =          72019.78
     UNSATURATED ZONE =       -1389136.09       UNSATURATED ZONE =          78240.74
       SATURATED ZONE =        -679177.51         SATURATED ZONE =           2224.52

 OVERALL BUDGET ERROR =          -3018.40           BUDGET ERROR =            -13.58


  PERCENT DISCREPANCY =             -0.02    PERCENT DISCREPANCY =             -0.01



1
 SUMMARY VOLUMETRIC BUDGET FOR GSFLOW 
 DATE: 02 24 1981              CUMULATIVE TIME STEP:     147
 MODFLOW STRESS PERIOD      2     CURRENT TIME STEP:     147     ITERATIONS:       8

 -----------------------------------------------------------------------------------

   CUMULATIVE VOLUMES               L**3   RATES FOR THIS TIME STEP           L**3/T
   ------------------                      ------------------------

                                     IN                                         IN
                                     --                                         --
        PRECIPITATION =        1.3179D+07          PRECIPITATION =         344646.37
           STREAMFLOW =                               STREAMFLOW =                  
     GW BOUNDARY FLOW =                         GW BOUNDARY FLOW =                  


                                    OUT                                        OUT
                                    ---                                        ---
   EVAPOTRANSPIRATION =        3820163.51     EVAPOTRANSPIRATION =          18156.56
           STREAMFLOW =        3116311.28             STREAMFLOW =          52107.90
     GW BOUNDARY FLOW =         106711.91       GW BOUNDARY FLOW =            732.35

   INFLOWS - OUTFLOWS =        6135358.05     INFLOWS - OUTFLOWS =         273649.56
             --------                                   --------

 TOTAL STORAGE CHANGE =        6138392.67         STORAGE CHANGE =         273642.73
       --------------                             --------------
         LAND SURFACE =        5114626.44           LAND SURFACE =         302136.78
            SOIL ZONE =        2700856.96              SOIL ZONE =         -61142.21
     UNSATURATED ZONE =       -1022842.34       UNSATURATED ZONE =          29873.44
       SATURATED ZONE =        -654248.38         SATURATED ZONE =           2774.72

 OVERALL BUDGET ERROR =          -3034.62           BUDGET ERROR =              6.83


  PERCENT DISCREPANCY =             -0.02    PERCENT DISCREPANCY =              0.00



1
 SUMMARY VOLUMETRIC BUDGET FOR GSFLOW 
 DATE: 03 03 1981              CUMULATIVE TIME STEP:     154
 MODFLOW STRESS PERIOD      2     CURRENT TIME STEP:     154     ITERATIONS:       8

 -----------------------------------------------------------------------------------

   CUMULATIVE VOLUMES               L**3   RATES FOR THIS TIME STEP           L**3/T
   ------------------                      ------------------------

                                     IN                                         IN
                                     --                                         --
        PRECIPITATION =        1.3447D+07          PRECIPITATION =                  
           STREAMFLOW =                               STREAMFLOW =                  
     GW BOUNDARY FLOW =                         GW BOUNDARY FLOW =                  


                                    OUT                                        OUT
                                    ---                                        ---
   EVAPOTRANSPIRATION =        3966878.00     EVAPOTRANSPIRATION =          40572.52
           STREAMFLOW =        3340508.87             STREAMFLOW =          27503.72
     GW BOUNDARY FLOW =         111820.03       GW BOUNDARY FLOW =            728.46

   INFLOWS - OUTFLOWS =        6027396.14     INFLOWS - OUTFLOWS =         -68804.70
             --------                                   --------

 TOTAL STORAGE CHANGE =        6030385.61         STORAGE CHANGE =         -68807.50
       --------------                             --------------
         LAND SURFACE =        5215950.03           LAND SURFACE =         -58695.50
            SOIL ZONE =        2485441.09              SOIL ZONE =            824.56
     UNSATURATED ZONE =       -1015126.09       UNSATURATED ZONE =          -9354.70
       SATURATED ZONE =        -655879.42         SATURATED ZONE =          -1581.87

 OVERALL BUDGET ERROR =          -2989.46           BUDGET ERROR =              2.80


  PERCENT DISCREPANCY =             -0.02    PERCENT DISCREPANCY =              0.00



1
 SUMMARY VOLUMETRIC BUDGET FOR GSFLOW 
 DATE: 03 10 1981              CUMULATIVE TIME STEP:     161
 MODFLOW STRESS PERIOD      2     CURRENT TIME STEP:     161     ITERATIONS:       9

 -----------------------------------------------------------------------------------

   CUMULATIVE VOLUMES               L**3   RATES FOR THIS TIME STEP           L**3/T
   ------------------                      ------------------------

                                     IN                                         IN
                                     --                                         --
        PRECIPITATION =        1.3493D+07          PRECIPITATION =                  
           STREAMFLOW =                               STREAMFLOW =                  
     GW BOUNDARY FLOW =                         GW BOUNDARY FLOW =                  


                                    OUT                                        OUT
                                    ---                                        ---
   EVAPOTRANSPIRATION =        4257267.88     EVAPOTRANSPIRATION =          60221.81
           STREAMFLOW =        3569828.42             STREAMFLOW =          42675.62
     GW BOUNDARY FLOW =         116918.27       GW BOUNDARY FLOW =            729.13

   INFLOWS - OUTFLOWS =        5548926.59     INFLOWS - OUTFLOWS =        -103626.56
             --------                                   --------

 TOTAL STORAGE CHANGE =        5551897.00         STORAGE CHANGE =        -103625.95
       --------------                             --------------
         LAND SURFACE =        4625651.75           LAND SURFACE =        -150436.00
            SOIL ZONE =        2593829.72              SOIL ZONE =          29689.36
     UNSATURATED ZONE =        -999844.86       UNSATURATED ZONE =          17818.86
       SATURATED ZONE =        -667739.61         SATURATED ZONE =           -698.16

 OVERALL BUDGET ERROR =          -2970.41           BUDGET ERROR =             -0.61


  PERCENT DISCREPANCY =             -0.02    PERCENT DISCREPANCY =             -0.00



1
 SUMMARY VOLUMETRIC BUDGET FOR GSFLOW 
 DATE: 03 17 1981              CUMULATIVE TIME STEP:     168
 MODFLOW STRESS PERIOD      2     CURRENT TIME STEP:     168     ITERATIONS:       7

 -----------------------------------------------------------------------------------

   CUMULATIVE VOLUMES               L**3   RATES FOR THIS TIME STEP           L**3/T
   ------------------                      ------------------------

                                     IN                                         IN
                                     --                                         --
        PRECIPITATION =        1.3744D+07          PRECIPITATION =                  
           STREAMFLOW =                               STREAMFLOW =                  
     GW BOUNDARY FLOW =                         GW BOUNDARY FLOW =                  


                                    OUT                                        OUT
                                    ---                                        ---
   EVAPOTRANSPIRATION =        4571928.53     EVAPOTRANSPIRATION =          33262.65
           STREAMFLOW =        3795396.07             STREAMFLOW =          24173.17
     GW BOUNDARY FLOW =         122018.96       GW BOUNDARY FLOW =            727.92

   INFLOWS - OUTFLOWS =        5255147.32     INFLOWS - OUTFLOWS =         -58163.74
             --------                                   --------

 TOTAL STORAGE CHANGE =        5258097.14         STORAGE CHANGE =         -58161.39
       --------------                             --------------
         LAND SURFACE =        4487181.82           LAND SURFACE =         -32994.50
            SOIL ZONE =        2440638.70              SOIL ZONE =          -5984.91
     UNSATURATED ZONE =        -983508.43       UNSATURATED ZONE =         -14667.97
       SATURATED ZONE =        -686214.94         SATURATED ZONE =          -4514.01

 OVERALL BUDGET ERROR =          -2949.82           BUDGET ERROR =             -2.35


  PERCENT DISCREPANCY =             -0.02    PERCENT DISCREPANCY =             -0.00



1
 SUMMARY VOLUMETRIC BUDGET FOR GSFLOW 
 DATE: 03 24 1981              CUMULATIVE TIME STEP:     175
 MODFLOW STRESS PERIOD      2     CURRENT TIME STEP:     175     ITERATIONS:       7

 -----------------------------------------------------------------------------------

   CUMULATIVE VOLUMES               L**3   RATES FOR THIS TIME STEP           L**3/T
   ------------------                      ------------------------

                                     IN                                         IN
                                     --                                         --
        PRECIPITATION =        1.4367D+07          PRECIPITATION =                  
           STREAMFLOW =                               STREAMFLOW =                  
     GW BOUNDARY FLOW =                         GW BOUNDARY FLOW =                  


                                    OUT                                        OUT
                                    ---                                        ---
   EVAPOTRANSPIRATION =        4891751.80     EVAPOTRANSPIRATION =          80764.16
           STREAMFLOW =        3965726.23             STREAMFLOW =          26929.50
     GW BOUNDARY FLOW =         127110.51       GW BOUNDARY FLOW =            727.33

   INFLOWS - OUTFLOWS =        5382156.98     INFLOWS - OUTFLOWS =        -108420.99
             --------                                   --------

 TOTAL STORAGE CHANGE =        5385129.17         STORAGE CHANGE =        -108419.01
       --------------                             --------------
         LAND SURFACE =        4817015.04           LAND SURFACE =         -67964.32
            SOIL ZONE =        2353073.55              SOIL ZONE =         -30951.66
     UNSATURATED ZONE =       -1062764.72       UNSATURATED ZONE =          -4271.70
       SATURATED ZONE =        -722194.70         SATURATED ZONE =          -5231.33

 OVERALL BUDGET ERROR =          -2972.19           BUDGET ERROR =             -1.98


  PERCENT DISCREPANCY =             -0.02    PERCENT DISCREPANCY =             -0.00



1
 SUMMARY VOLUMETRIC BUDGET FOR GSFLOW 
 DATE: 03 31 1981              CUMULATIVE TIME STEP:     182
 MODFLOW STRESS PERIOD      2     CURRENT TIME STEP:     182     ITERATIONS:       8

 -----------------------------------------------------------------------------------

   CUMULATIVE VOLUMES               L**3   RATES FOR THIS TIME STEP           L**3/T
   ------------------                      ------------------------

                                     IN                                         IN
                                     --                                         --
        PRECIPITATION =        1.5777D+07          PRECIPITATION =                  
           STREAMFLOW =                               STREAMFLOW =                  
     GW BOUNDARY FLOW =                         GW BOUNDARY FLOW =                  


                                    OUT                                        OUT
                                    ---                                        ---
   EVAPOTRANSPIRATION =        5279925.08     EVAPOTRANSPIRATION =          42424.05
           STREAMFLOW =        4438803.29             STREAMFLOW =          35681.40
     GW BOUNDARY FLOW =         132228.21       GW BOUNDARY FLOW =            729.99

   INFLOWS - OUTFLOWS =        5925791.41     INFLOWS - OUTFLOWS =         -78835.44
             --------                                   --------

 TOTAL STORAGE CHANGE =        5928753.15         STORAGE CHANGE =         -78841.56
       --------------                             --------------
         LAND SURFACE =        4993002.71           LAND SURFACE =         -43256.98
            SOIL ZONE =        2520057.08              SOIL ZONE =         -37031.92
     UNSATURATED ZONE =        -861565.39       UNSATURATED ZONE =           3377.28
       SATURATED ZONE =        -722741.25         SATURATED ZONE =          -1929.94

 OVERALL BUDGET ERROR =          -2961.75           BUDGET ERROR =              6.12


  PERCENT DISCREPANCY =             -0.02    PERCENT DISCREPANCY =              0.01



1
 SUMMARY VOLUMETRIC BUDGET FOR GSFLOW 
 DATE: 04 07 1981              CUMULATIVE TIME STEP:     189
 MODFLOW STRESS PERIOD      2     CURRENT TIME STEP:     189     ITERATIONS:       7

 -----------------------------------------------------------------------------------

   CUMULATIVE VOLUMES               L**3   RATES FOR THIS TIME STEP           L**3/T
   ------------------                      ------------------------

                                     IN                                         IN
                                     --                                         --
        PRECIPITATION =        1.6121D+07          PRECIPITATION =                  
           STREAMFLOW =                               STREAMFLOW =                  
     GW BOUNDARY FLOW =                         GW BOUNDARY FLOW =                  


                                    OUT                                        OUT
                                    ---                                        ---
   EVAPOTRANSPIRATION =        5874373.87     EVAPOTRANSPIRATION =          97287.85
           STREAMFLOW =        4751833.90             STREAMFLOW =          43983.49
     GW BOUNDARY FLOW =         137338.74       GW BOUNDARY FLOW =            730.47

   INFLOWS - OUTFLOWS =        5357921.10     INFLOWS - OUTFLOWS =        -142001.81
             --------                                   --------

 TOTAL STORAGE CHANGE =        5360861.72         STORAGE CHANGE =        -142008.14
       --------------                             --------------
         LAND SURFACE =        4406920.28           LAND SURFACE =        -136036.64
            SOIL ZONE =        2471790.87              SOIL ZONE =         -17414.90
     UNSATURATED ZONE =        -791775.48       UNSATURATED ZONE =          11878.82
       SATURATED ZONE =        -726073.95         SATURATED ZONE =           -435.43

 OVERALL BUDGET ERROR =          -2940.62           BUDGET ERROR =              6.33


  PERCENT DISCREPANCY =             -0.02    PERCENT DISCREPANCY =              0.00



1
 SUMMARY VOLUMETRIC BUDGET FOR GSFLOW 
 DATE: 04 14 1981              CUMULATIVE TIME STEP:     196
 MODFLOW STRESS PERIOD      2     CURRENT TIME STEP:     196     ITERATIONS:       9

 -----------------------------------------------------------------------------------

   CUMULATIVE VOLUMES               L**3   RATES FOR THIS TIME STEP           L**3/T
   ------------------                      ------------------------

                                     IN                                         IN
                                     --                                         --
        PRECIPITATION =        1.6121D+07          PRECIPITATION =                  
           STREAMFLOW =                               STREAMFLOW =                  
     GW BOUNDARY FLOW =                         GW BOUNDARY FLOW =                  


                                    OUT                                        OUT
                                    ---                                        ---
   EVAPOTRANSPIRATION =        6737802.99     EVAPOTRANSPIRATION =         187136.51
           STREAMFLOW =        5087247.71             STREAMFLOW =          59119.98
     GW BOUNDARY FLOW =         142451.80       GW BOUNDARY FLOW =            730.74

   INFLOWS - OUTFLOWS =        4153965.11     INFLOWS - OUTFLOWS =        -246987.23
             --------                                   --------

 TOTAL STORAGE CHANGE =        4156884.61         STORAGE CHANGE =        -246987.92
       --------------                             --------------
         LAND SURFACE =        3161053.21           LAND SURFACE =        -267068.64
            SOIL ZONE =        2406146.51              SOIL ZONE =          -6892.48
     UNSATURATED ZONE =        -686874.64       UNSATURATED ZONE =          24775.69
       SATURATED ZONE =        -723440.46         SATURATED ZONE =           2197.51

 OVERALL BUDGET ERROR =          -2919.50           BUDGET ERROR =              0.69


  PERCENT DISCREPANCY =             -0.02    PERCENT DISCREPANCY =              0.00



1
 SUMMARY VOLUMETRIC BUDGET FOR GSFLOW 
 DATE: 04 21 1981              CUMULATIVE TIME STEP:     203
 MODFLOW STRESS PERIOD      2     CURRENT TIME STEP:     203     ITERATIONS:       9

 -----------------------------------------------------------------------------------

   CUMULATIVE VOLUMES               L**3   RATES FOR THIS TIME STEP           L**3/T
   ------------------                      ------------------------

                                     IN                                         IN
                                     --                                         --
        PRECIPITATION =        1.6310D+07          PRECIPITATION =                  
           STREAMFLOW =                               STREAMFLOW =                  
     GW BOUNDARY FLOW =                         GW BOUNDARY FLOW =                  


                                    OUT                                        OUT
                                    ---                                        ---
   EVAPOTRANSPIRATION =        7766916.06     EVAPOTRANSPIRATION =         145714.99
           STREAMFLOW =        5461682.47             STREAMFLOW =          52139.57
     GW BOUNDARY FLOW =         147562.33       GW BOUNDARY FLOW =            729.62

   INFLOWS - OUTFLOWS =        2934081.78     INFLOWS - OUTFLOWS =        -198584.18
             --------                                   --------

 TOTAL STORAGE CHANGE =        2936986.17         STORAGE CHANGE =        -198587.23
       --------------                             --------------
         LAND SURFACE =        1896122.57           LAND SURFACE =        -137232.08
            SOIL ZONE =        2284912.47              SOIL ZONE =         -87079.99
     UNSATURATED ZONE =        -539287.55       UNSATURATED ZONE =          22096.60
       SATURATED ZONE =        -704761.32         SATURATED ZONE =           3628.24

 OVERALL BUDGET ERROR =          -2904.39           BUDGET ERROR =              3.05


  PERCENT DISCREPANCY =             -0.02    PERCENT DISCREPANCY =              0.00



1
 SUMMARY VOLUMETRIC BUDGET FOR GSFLOW 
 DATE: 04 28 1981              CUMULATIVE TIME STEP:     210
 MODFLOW STRESS PERIOD      2     CURRENT TIME STEP:     210     ITERATIONS:      10

 -----------------------------------------------------------------------------------

   CUMULATIVE VOLUMES               L**3   RATES FOR THIS TIME STEP           L**3/T
   ------------------                      ------------------------

                                     IN                                         IN
                                     --                                         --
        PRECIPITATION =        1.6515D+07          PRECIPITATION =                  
           STREAMFLOW =                               STREAMFLOW =                  
     GW BOUNDARY FLOW =                         GW BOUNDARY FLOW =                  


                                    OUT                                        OUT
                                    ---                                        ---
   EVAPOTRANSPIRATION =        8999014.36     EVAPOTRANSPIRATION =         203946.56
           STREAMFLOW =        5714167.71             STREAMFLOW =          29665.59
     GW BOUNDARY FLOW =         152658.97       GW BOUNDARY FLOW =            726.93

   INFLOWS - OUTFLOWS =        1649591.85     INFLOWS - OUTFLOWS =        -234339.07
             --------                                   --------

 TOTAL STORAGE CHANGE =        1652475.67         STORAGE CHANGE =        -234340.12
       --------------                             --------------
         LAND SURFACE =        1024372.37           LAND SURFACE =        -106059.65
            SOIL ZONE =        1811507.94              SOIL ZONE =        -132653.28
     UNSATURATED ZONE =        -493899.17       UNSATURATED ZONE =           2849.38
       SATURATED ZONE =        -689505.47         SATURATED ZONE =           1523.43

 OVERALL BUDGET ERROR =          -2883.83           BUDGET ERROR =              1.05


  PERCENT DISCREPANCY =             -0.02    PERCENT DISCREPANCY =              0.00



1
 SUMMARY VOLUMETRIC BUDGET FOR GSFLOW 
 DATE: 05 05 1981              CUMULATIVE TIME STEP:     217
 MODFLOW STRESS PERIOD      2     CURRENT TIME STEP:     217     ITERATIONS:       9

 -----------------------------------------------------------------------------------

   CUMULATIVE VOLUMES               L**3   RATES FOR THIS TIME STEP           L**3/T
   ------------------                      ------------------------

                                     IN                                         IN
                                     --                                         --
        PRECIPITATION =        1.6515D+07          PRECIPITATION =                  
           STREAMFLOW =                               STREAMFLOW =                  
     GW BOUNDARY FLOW =                         GW BOUNDARY FLOW =                  


                                    OUT                                        OUT
                                    ---                                        ---
   EVAPOTRANSPIRATION =        9851436.56     EVAPOTRANSPIRATION =          46784.33
           STREAMFLOW =        5835027.11             STREAMFLOW =          11542.87
     GW BOUNDARY FLOW =         157737.45       GW BOUNDARY FLOW =            724.45

   INFLOWS - OUTFLOWS =         671231.77     INFLOWS - OUTFLOWS =         -59051.64
             --------                                   --------

 TOTAL STORAGE CHANGE =         674137.26         STORAGE CHANGE =         -59048.75
       --------------                             --------------
         LAND SURFACE =         572072.26           LAND SURFACE =         -19135.69
            SOIL ZONE =        1364678.61              SOIL ZONE =         -23087.01
     UNSATURATED ZONE =        -564585.10       UNSATURATED ZONE =         -14448.76
       SATURATED ZONE =        -698028.51         SATURATED ZONE =          -2377.29

 OVERALL BUDGET ERROR =          -2905.50           BUDGET ERROR =             -2.89


  PERCENT DISCREPANCY =             -0.02    PERCENT DISCREPANCY =             -0.00



1
 SUMMARY VOLUMETRIC BUDGET FOR GSFLOW 
 DATE: 05 12 1981              CUMULATIVE TIME STEP:     224
 MODFLOW STRESS PERIOD      2     CURRENT TIME STEP:     224     ITERATIONS:      10

 -----------------------------------------------------------------------------------

   CUMULATIVE VOLUMES               L**3   RATES FOR THIS TIME STEP           L**3/T
   ------------------                      ------------------------

                                     IN                                         IN
                                     --                                         --
        PRECIPITATION =        1.6515D+07          PRECIPITATION =                  
           STREAMFLOW =                               STREAMFLOW =                  
     GW BOUNDARY FLOW =                         GW BOUNDARY FLOW =                  


                                    OUT                                        OUT
                                    ---                                        ---
   EVAPOTRANSPIRATION =        1.0374D+07     EVAPOTRANSPIRATION =         100969.75
           STREAMFLOW =        5915172.49             STREAMFLOW =          12698.29
     GW BOUNDARY FLOW =         162804.89       GW BOUNDARY FLOW =            723.84

   INFLOWS - OUTFLOWS =          63125.94     INFLOWS - OUTFLOWS =        -114391.88
             --------                                   --------

 TOTAL STORAGE CHANGE =          66087.16         STORAGE CHANGE =        -114382.39
       --------------                             --------------
         LAND SURFACE =         357793.78           LAND SURFACE =         -38759.63
            SOIL ZONE =        1089029.61              SOIL ZONE =         -60467.00
     UNSATURATED ZONE =        -656900.58       UNSATURATED ZONE =         -10570.89
       SATURATED ZONE =        -723835.65         SATURATED ZONE =          -4584.87

 OVERALL BUDGET ERROR =          -2961.22           BUDGET ERROR =             -9.49


  PERCENT DISCREPANCY =             -0.02    PERCENT DISCREPANCY =             -0.01



1
 SUMMARY VOLUMETRIC BUDGET FOR GSFLOW 
 DATE: 05 19 1981              CUMULATIVE TIME STEP:     231
 MODFLOW STRESS PERIOD      2     CURRENT TIME STEP:     231     ITERATIONS:      12

 -----------------------------------------------------------------------------------

   CUMULATIVE VOLUMES               L**3   RATES FOR THIS TIME STEP           L**3/T
   ------------------                      ------------------------

                                     IN                                         IN
                                     --                                         --
        PRECIPITATION =        1.7837D+07          PRECIPITATION =         169045.43
           STREAMFLOW =                               STREAMFLOW =                  
     GW BOUNDARY FLOW =                         GW BOUNDARY FLOW =                  


                                    OUT                                        OUT
                                    ---                                        ---
   EVAPOTRANSPIRATION =        1.0713D+07     EVAPOTRANSPIRATION =          31098.90
           STREAMFLOW =        6067808.70             STREAMFLOW =          31368.37
     GW BOUNDARY FLOW =         167875.02       GW BOUNDARY FLOW =            725.89

   INFLOWS - OUTFLOWS =         888616.56     INFLOWS - OUTFLOWS =         105852.27
             --------                                   --------

 TOTAL STORAGE CHANGE =         891621.71         STORAGE CHANGE =         105857.80
       --------------                             --------------
         LAND SURFACE =         311384.16           LAND SURFACE =          16932.00
            SOIL ZONE =        2034978.95              SOIL ZONE =          86288.66
     UNSATURATED ZONE =        -696594.64       UNSATURATED ZONE =           6660.63
       SATURATED ZONE =        -758146.76         SATURATED ZONE =          -4023.50

 OVERALL BUDGET ERROR =          -3005.15           BUDGET ERROR =             -5.53


  PERCENT DISCREPANCY =             -0.02    PERCENT DISCREPANCY =             -0.00



1
 SUMMARY VOLUMETRIC BUDGET FOR GSFLOW 
 DATE: 05 26 1981              CUMULATIVE TIME STEP:     238
 MODFLOW STRESS PERIOD      2     CURRENT TIME STEP:     238     ITERATIONS:      10

 -----------------------------------------------------------------------------------

   CUMULATIVE VOLUMES               L**3   RATES FOR THIS TIME STEP           L**3/T
   ------------------                      ------------------------

                                     IN                                         IN
                                     --                                         --
        PRECIPITATION =        1.8252D+07          PRECIPITATION =         284303.67
           STREAMFLOW =                               STREAMFLOW =                  
     GW BOUNDARY FLOW =                         GW BOUNDARY FLOW =                  


                                    OUT                                        OUT
                                    ---                                        ---
   EVAPOTRANSPIRATION =        1.1510D+07     EVAPOTRANSPIRATION =         126247.51
           STREAMFLOW =        6204994.24             STREAMFLOW =          24028.56
     GW BOUNDARY FLOW =         172948.96       GW BOUNDARY FLOW =            724.59

   INFLOWS - OUTFLOWS =         364423.99     INFLOWS - OUTFLOWS =         133303.01
             --------                                   --------

 TOTAL STORAGE CHANGE =         367461.76         STORAGE CHANGE =         133304.24
       --------------                             --------------
         LAND SURFACE =         193288.31           LAND SURFACE =         -13054.26
            SOIL ZONE =        1698144.80              SOIL ZONE =         158428.90
     UNSATURATED ZONE =        -726282.63       UNSATURATED ZONE =          -6673.24
       SATURATED ZONE =        -797688.71         SATURATED ZONE =          -5397.16

 OVERALL BUDGET ERROR =          -3037.78           BUDGET ERROR =             -1.22


  PERCENT DISCREPANCY =             -0.02    PERCENT DISCREPANCY =             -0.00



1
 SUMMARY VOLUMETRIC BUDGET FOR GSFLOW 
 DATE: 06 02 1981              CUMULATIVE TIME STEP:     245
 MODFLOW STRESS PERIOD      2     CURRENT TIME STEP:     245     ITERATIONS:       9

 -----------------------------------------------------------------------------------

   CUMULATIVE VOLUMES               L**3   RATES FOR THIS TIME STEP           L**3/T
   ------------------                      ------------------------

                                     IN                                         IN
                                     --                                         --
        PRECIPITATION =        1.8318D+07          PRECIPITATION =          50869.96
           STREAMFLOW =                               STREAMFLOW =                  
     GW BOUNDARY FLOW =                         GW BOUNDARY FLOW =                  


                                    OUT                                        OUT
                                    ---                                        ---
   EVAPOTRANSPIRATION =        1.2338D+07     EVAPOTRANSPIRATION =          66593.91
           STREAMFLOW =        6290863.43             STREAMFLOW =           9071.78
     GW BOUNDARY FLOW =         178014.90       GW BOUNDARY FLOW =            723.02

   INFLOWS - OUTFLOWS =        -488197.13     INFLOWS - OUTFLOWS =         -25518.76
             --------                                   --------

 TOTAL STORAGE CHANGE =        -485111.97         STORAGE CHANGE =         -25512.33
       --------------                             --------------
         LAND SURFACE =         117089.10           LAND SURFACE =          25874.21
            SOIL ZONE =        1052086.46              SOIL ZONE =         -31175.16
     UNSATURATED ZONE =        -806340.21       UNSATURATED ZONE =         -12643.07
       SATURATED ZONE =        -847947.33         SATURATED ZONE =          -7568.31

 OVERALL BUDGET ERROR =          -3085.16           BUDGET ERROR =             -6.42


  PERCENT DISCREPANCY =             -0.02    PERCENT DISCREPANCY =             -0.01



1
 SUMMARY VOLUMETRIC BUDGET FOR GSFLOW 
 DATE: 06 09 1981              CUMULATIVE TIME STEP:     252
 MODFLOW STRESS PERIOD      2     CURRENT TIME STEP:     252     ITERATIONS:      10

 -----------------------------------------------------------------------------------

   CUMULATIVE VOLUMES               L**3   RATES FOR THIS TIME STEP           L**3/T
   ------------------                      ------------------------

                                     IN                                         IN
                                     --                                         --
        PRECIPITATION =        1.8318D+07          PRECIPITATION =                  
           STREAMFLOW =                               STREAMFLOW =                  
     GW BOUNDARY FLOW =                         GW BOUNDARY FLOW =                  


                                    OUT                                        OUT
                                    ---                                        ---
   EVAPOTRANSPIRATION =        1.2886D+07     EVAPOTRANSPIRATION =          55625.88
           STREAMFLOW =        6345558.04             STREAMFLOW =           7214.02
     GW BOUNDARY FLOW =         183072.99       GW BOUNDARY FLOW =            722.33

   INFLOWS - OUTFLOWS =       -1095953.20     INFLOWS - OUTFLOWS =         -63562.24
             --------                                   --------

 TOTAL STORAGE CHANGE =       -1092814.36         STORAGE CHANGE =         -63555.71
       --------------                             --------------
         LAND SURFACE =          38772.53           LAND SURFACE =          -4318.45
            SOIL ZONE =         665794.39              SOIL ZONE =         -38278.40
     UNSATURATED ZONE =        -893272.17       UNSATURATED ZONE =         -12723.79
       SATURATED ZONE =        -904109.12         SATURATED ZONE =          -8235.07

 OVERALL BUDGET ERROR =          -3138.84           BUDGET ERROR =             -6.53


  PERCENT DISCREPANCY =             -0.02    PERCENT DISCREPANCY =             -0.01



1
 SUMMARY VOLUMETRIC BUDGET FOR GSFLOW 
 DATE: 06 16 1981              CUMULATIVE TIME STEP:     259
 MODFLOW STRESS PERIOD      2     CURRENT TIME STEP:     259     ITERATIONS:       9

 -----------------------------------------------------------------------------------

   CUMULATIVE VOLUMES               L**3   RATES FOR THIS TIME STEP           L**3/T
   ------------------                      ------------------------

                                     IN                                         IN
                                     --                                         --
        PRECIPITATION =        1.8318D+07          PRECIPITATION =                  
           STREAMFLOW =                               STREAMFLOW =                  
     GW BOUNDARY FLOW =                         GW BOUNDARY FLOW =                  


                                    OUT                                        OUT
                                    ---                                        ---
   EVAPOTRANSPIRATION =        1.3093D+07     EVAPOTRANSPIRATION =          47414.52
           STREAMFLOW =        6393338.88             STREAMFLOW =           6678.25
     GW BOUNDARY FLOW =         188128.02       GW BOUNDARY FLOW =            722.04

   INFLOWS - OUTFLOWS =       -1356298.44     INFLOWS - OUTFLOWS =         -54814.81
             --------                                   --------

 TOTAL STORAGE CHANGE =       -1353111.58         STORAGE CHANGE =         -54807.41
       --------------                             --------------
         LAND SURFACE =          24983.30           LAND SURFACE =          -2996.08
            SOIL ZONE =         569791.42              SOIL ZONE =         -30031.78
     UNSATURATED ZONE =        -983973.69       UNSATURATED ZONE =         -12984.28
       SATURATED ZONE =        -963912.62         SATURATED ZONE =          -8795.27

 OVERALL BUDGET ERROR =          -3186.86           BUDGET ERROR =             -7.40


  PERCENT DISCREPANCY =             -0.02    PERCENT DISCREPANCY =             -0.01



1
 SUMMARY VOLUMETRIC BUDGET FOR GSFLOW 
 DATE: 06 23 1981              CUMULATIVE TIME STEP:     266
 MODFLOW STRESS PERIOD      2     CURRENT TIME STEP:     266     ITERATIONS:      11

 -----------------------------------------------------------------------------------

   CUMULATIVE VOLUMES               L**3   RATES FOR THIS TIME STEP           L**3/T
   ------------------                      ------------------------

                                     IN                                         IN
                                     --                                         --
        PRECIPITATION =        1.8318D+07          PRECIPITATION =                  
           STREAMFLOW =                               STREAMFLOW =                  
     GW BOUNDARY FLOW =                         GW BOUNDARY FLOW =                  


                                    OUT                                        OUT
                                    ---                                        ---
   EVAPOTRANSPIRATION =        1.3434D+07     EVAPOTRANSPIRATION =          40211.64
           STREAMFLOW =        6437802.94             STREAMFLOW =           6111.17
     GW BOUNDARY FLOW =         193182.67       GW BOUNDARY FLOW =            722.40

   INFLOWS - OUTFLOWS =       -1747233.07     INFLOWS - OUTFLOWS =         -47045.20
             --------                                   --------

 TOTAL STORAGE CHANGE =       -1743989.79         STORAGE CHANGE =         -47037.03
       --------------                             --------------
         LAND SURFACE =           6713.78           LAND SURFACE =          -1553.37
            SOIL ZONE =         350817.23              SOIL ZONE =         -23616.80
     UNSATURATED ZONE =       -1073165.09       UNSATURATED ZONE =         -12545.22
       SATURATED ZONE =       -1028355.71         SATURATED ZONE =          -9321.64

 OVERALL BUDGET ERROR =          -3243.28           BUDGET ERROR =             -8.18


  PERCENT DISCREPANCY =             -0.02    PERCENT DISCREPANCY =             -0.02



1
 SUMMARY VOLUMETRIC BUDGET FOR GSFLOW 
 DATE: 06 30 1981              CUMULATIVE TIME STEP:     273
 MODFLOW STRESS PERIOD      2     CURRENT TIME STEP:     273     ITERATIONS:       9

 -----------------------------------------------------------------------------------

   CUMULATIVE VOLUMES               L**3   RATES FOR THIS TIME STEP           L**3/T
   ------------------                      ------------------------

                                     IN                                         IN
[...]
                                    ---                                        ---
   EVAPOTRANSPIRATION =        2.7920D+08     EVAPOTRANSPIRATION =          37121.93
           STREAMFLOW =        1.8819D+08             STREAMFLOW =           7234.08
     GW BOUNDARY FLOW =        4178857.41       GW BOUNDARY FLOW =            726.41

   INFLOWS - OUTFLOWS =       -6516027.76     INFLOWS - OUTFLOWS =         -45082.42
             --------                                   --------

 TOTAL STORAGE CHANGE =       -6501221.81         STORAGE CHANGE =         -45078.14
       --------------                             --------------
         LAND SURFACE =        7.9403D-09           LAND SURFACE =                  
            SOIL ZONE =         270419.19              SOIL ZONE =         -22639.10
     UNSATURATED ZONE =        4886899.20       UNSATURATED ZONE =         -29543.20
       SATURATED ZONE =       -1.1659D+07         SATURATED ZONE =           7104.16

 OVERALL BUDGET ERROR =         -14805.94           BUDGET ERROR =             -4.29


  PERCENT DISCREPANCY =             -0.00    PERCENT DISCREPANCY =             -0.01



1
 SUMMARY VOLUMETRIC BUDGET FOR GSFLOW 
 DATE: 07 30 1996              CUMULATIVE TIME STEP:    5782
 MODFLOW STRESS PERIOD      2     CURRENT TIME STEP:    5782     ITERATIONS:      10

 -----------------------------------------------------------------------------------

   CUMULATIVE VOLUMES               L**3   RATES FOR THIS TIME STEP           L**3/T
   ------------------                      ------------------------

                                     IN                                         IN
                                     --                                         --
        PRECIPITATION =        4.6511D+08          PRECIPITATION =                  
           STREAMFLOW =                               STREAMFLOW =                  
     GW BOUNDARY FLOW =                         GW BOUNDARY FLOW =                  


                                    OUT                                        OUT
                                    ---                                        ---
   EVAPOTRANSPIRATION =        2.7944D+08     EVAPOTRANSPIRATION =          24914.69
           STREAMFLOW =        1.8824D+08             STREAMFLOW =           7069.48
     GW BOUNDARY FLOW =        4183940.26       GW BOUNDARY FLOW =            726.00

   INFLOWS - OUTFLOWS =       -6752942.78     INFLOWS - OUTFLOWS =         -32710.18
             --------                                   --------

 TOTAL STORAGE CHANGE =       -6738117.23         STORAGE CHANGE =         -32707.98
       --------------                             --------------
         LAND SURFACE =        7.9381D-09           LAND SURFACE =                  
            SOIL ZONE =         189051.13              SOIL ZONE =         -10641.43
     UNSATURATED ZONE =        4682482.02       UNSATURATED ZONE =         -28772.73
       SATURATED ZONE =       -1.1610D+07         SATURATED ZONE =           6706.17

 OVERALL BUDGET ERROR =         -14825.55           BUDGET ERROR =             -2.19


  PERCENT DISCREPANCY =             -0.00    PERCENT DISCREPANCY =             -0.01



1
 SUMMARY VOLUMETRIC BUDGET FOR GSFLOW 
 DATE: 08 06 1996              CUMULATIVE TIME STEP:    5789
 MODFLOW STRESS PERIOD      2     CURRENT TIME STEP:    5789     ITERATIONS:      11

 -----------------------------------------------------------------------------------

   CUMULATIVE VOLUMES               L**3   RATES FOR THIS TIME STEP           L**3/T
   ------------------                      ------------------------

                                     IN                                         IN
                                     --                                         --
        PRECIPITATION =        4.6511D+08          PRECIPITATION =                  
           STREAMFLOW =                               STREAMFLOW =                  
     GW BOUNDARY FLOW =                         GW BOUNDARY FLOW =                  


                                    OUT                                        OUT
                                    ---                                        ---
   EVAPOTRANSPIRATION =        2.7957D+08     EVAPOTRANSPIRATION =          16197.30
           STREAMFLOW =        1.8829D+08             STREAMFLOW =           6863.16
     GW BOUNDARY FLOW =        4189021.51       GW BOUNDARY FLOW =            725.79

   INFLOWS - OUTFLOWS =       -6938774.36     INFLOWS - OUTFLOWS =         -23786.26
             --------                                   --------

 TOTAL STORAGE CHANGE =       -6923923.66         STORAGE CHANGE =         -23781.45
       --------------                             --------------
         LAND SURFACE =        7.9381D-09           LAND SURFACE =                  
            SOIL ZONE =         156327.83              SOIL ZONE =          -2056.96
     UNSATURATED ZONE =        4486840.91       UNSATURATED ZONE =         -27354.68
       SATURATED ZONE =       -1.1567D+07         SATURATED ZONE =           5630.19

 OVERALL BUDGET ERROR =         -14850.70           BUDGET ERROR =             -4.81


  PERCENT DISCREPANCY =             -0.00    PERCENT DISCREPANCY =             -0.02



1
 SUMMARY VOLUMETRIC BUDGET FOR GSFLOW 
 DATE: 08 13 1996              CUMULATIVE TIME STEP:    5796
 MODFLOW STRESS PERIOD      2     CURRENT TIME STEP:    5796     ITERATIONS:      10

 -----------------------------------------------------------------------------------

   CUMULATIVE VOLUMES               L**3   RATES FOR THIS TIME STEP           L**3/T
   ------------------                      ------------------------

                                     IN                                         IN
                                     --                                         --
        PRECIPITATION =        4.6531D+08          PRECIPITATION =          54454.08
           STREAMFLOW =                               STREAMFLOW =                  
     GW BOUNDARY FLOW =                         GW BOUNDARY FLOW =                  


                                    OUT                                        OUT
                                    ---                                        ---
   EVAPOTRANSPIRATION =        2.7973D+08     EVAPOTRANSPIRATION =          29203.76
           STREAMFLOW =        1.8834D+08             STREAMFLOW =           8061.44
     GW BOUNDARY FLOW =        4194101.24       GW BOUNDARY FLOW =            725.67

   INFLOWS - OUTFLOWS =       -6954100.15     INFLOWS - OUTFLOWS =          16463.20
             --------                                   --------

 TOTAL STORAGE CHANGE =       -6939236.88         STORAGE CHANGE =          16466.84
       --------------                             --------------
         LAND SURFACE =          34505.06           LAND SURFACE =                  
            SOIL ZONE =         257027.75              SOIL ZONE =          37774.08
     UNSATURATED ZONE =        4298379.74       UNSATURATED ZONE =         -26430.73
       SATURATED ZONE =       -1.1529D+07         SATURATED ZONE =           5123.50

 OVERALL BUDGET ERROR =         -14863.27           BUDGET ERROR =             -3.64


  PERCENT DISCREPANCY =             -0.00    PERCENT DISCREPANCY =             -0.01



1
 SUMMARY VOLUMETRIC BUDGET FOR GSFLOW 
 DATE: 08 20 1996              CUMULATIVE TIME STEP:    5803
 MODFLOW STRESS PERIOD      2     CURRENT TIME STEP:    5803     ITERATIONS:      10

 -----------------------------------------------------------------------------------

   CUMULATIVE VOLUMES               L**3   RATES FOR THIS TIME STEP           L**3/T
   ------------------                      ------------------------

                                     IN                                         IN
                                     --                                         --
        PRECIPITATION =        4.6531D+08          PRECIPITATION =                  
           STREAMFLOW =                               STREAMFLOW =                  
     GW BOUNDARY FLOW =                         GW BOUNDARY FLOW =                  


                                    OUT                                        OUT
                                    ---                                        ---
   EVAPOTRANSPIRATION =        2.7992D+08     EVAPOTRANSPIRATION =          17156.17
           STREAMFLOW =        1.8839D+08             STREAMFLOW =           6649.40
     GW BOUNDARY FLOW =        4199178.79       GW BOUNDARY FLOW =            725.15

   INFLOWS - OUTFLOWS =       -7198822.49     INFLOWS - OUTFLOWS =         -24530.72
             --------                                   --------

 TOTAL STORAGE CHANGE =       -7183932.98         STORAGE CHANGE =         -24526.61
       --------------                             --------------
         LAND SURFACE =        7.9381D-09           LAND SURFACE =                  
            SOIL ZONE =         195626.27              SOIL ZONE =          -3394.11
     UNSATURATED ZONE =        4120936.73       UNSATURATED ZONE =         -24570.25
       SATURATED ZONE =       -1.1500D+07         SATURATED ZONE =           3437.75

 OVERALL BUDGET ERROR =         -14889.51           BUDGET ERROR =             -4.10


  PERCENT DISCREPANCY =             -0.00    PERCENT DISCREPANCY =             -0.02



1
 SUMMARY VOLUMETRIC BUDGET FOR GSFLOW 
 DATE: 08 27 1996              CUMULATIVE TIME STEP:    5810
 MODFLOW STRESS PERIOD      2     CURRENT TIME STEP:    5810     ITERATIONS:      10

 -----------------------------------------------------------------------------------

   CUMULATIVE VOLUMES               L**3   RATES FOR THIS TIME STEP           L**3/T
   ------------------                      ------------------------

                                     IN                                         IN
                                     --                                         --
        PRECIPITATION =        4.6531D+08          PRECIPITATION =                  
           STREAMFLOW =                               STREAMFLOW =                  
     GW BOUNDARY FLOW =                         GW BOUNDARY FLOW =                  


                                    OUT                                        OUT
                                    ---                                        ---
   EVAPOTRANSPIRATION =        2.8006D+08     EVAPOTRANSPIRATION =          15689.79
           STREAMFLOW =        1.8844D+08             STREAMFLOW =           6485.82
     GW BOUNDARY FLOW =        4204252.90       GW BOUNDARY FLOW =            724.68

   INFLOWS - OUTFLOWS =       -7385928.83     INFLOWS - OUTFLOWS =         -22900.29
             --------                                   --------

 TOTAL STORAGE CHANGE =       -7371012.22         STORAGE CHANGE =         -22896.02
       --------------                             --------------
         LAND SURFACE =        7.9381D-09           LAND SURFACE =                  
            SOIL ZONE =         155372.00              SOIL ZONE =          -2035.83
     UNSATURATED ZONE =        3956223.26       UNSATURATED ZONE =         -22957.60
       SATURATED ZONE =       -1.1483D+07         SATURATED ZONE =           2097.42

 OVERALL BUDGET ERROR =         -14916.61           BUDGET ERROR =             -4.28


  PERCENT DISCREPANCY =             -0.00    PERCENT DISCREPANCY =             -0.02



1
 SUMMARY VOLUMETRIC BUDGET FOR GSFLOW 
 DATE: 09 03 1996              CUMULATIVE TIME STEP:    5817
 MODFLOW STRESS PERIOD      2     CURRENT TIME STEP:    5817     ITERATIONS:      10

 -----------------------------------------------------------------------------------

   CUMULATIVE VOLUMES               L**3   RATES FOR THIS TIME STEP           L**3/T
   ------------------                      ------------------------

                                     IN                                         IN
                                     --                                         --
        PRECIPITATION =        4.6531D+08          PRECIPITATION =                  
           STREAMFLOW =                               STREAMFLOW =                  
     GW BOUNDARY FLOW =                         GW BOUNDARY FLOW =                  


                                    OUT                                        OUT
                                    ---                                        ---
   EVAPOTRANSPIRATION =        2.8017D+08     EVAPOTRANSPIRATION =          12727.67
           STREAMFLOW =        1.8848D+08             STREAMFLOW =           6376.20
     GW BOUNDARY FLOW =        4209323.86       GW BOUNDARY FLOW =            724.25

   INFLOWS - OUTFLOWS =       -7546075.37     INFLOWS - OUTFLOWS =         -19828.11
             --------                                   --------

 TOTAL STORAGE CHANGE =       -7531127.57         STORAGE CHANGE =         -19823.98
       --------------                             --------------
         LAND SURFACE =        7.9381D-09           LAND SURFACE =                  
            SOIL ZONE =         140258.67              SOIL ZONE =            784.26
     UNSATURATED ZONE =        3796880.07       UNSATURATED ZONE =         -22351.18
       SATURATED ZONE =       -1.1468D+07         SATURATED ZONE =           1742.94

 OVERALL BUDGET ERROR =         -14947.80           BUDGET ERROR =             -4.14


  PERCENT DISCREPANCY =             -0.00    PERCENT DISCREPANCY =             -0.02



1
 SUMMARY VOLUMETRIC BUDGET FOR GSFLOW 
 DATE: 09 10 1996              CUMULATIVE TIME STEP:    5824
 MODFLOW STRESS PERIOD      2     CURRENT TIME STEP:    5824     ITERATIONS:      10

 -----------------------------------------------------------------------------------

   CUMULATIVE VOLUMES               L**3   RATES FOR THIS TIME STEP           L**3/T
   ------------------                      ------------------------

                                     IN                                         IN
                                     --                                         --
        PRECIPITATION =        4.6531D+08          PRECIPITATION =                  
           STREAMFLOW =                               STREAMFLOW =                  
     GW BOUNDARY FLOW =                         GW BOUNDARY FLOW =                  


                                    OUT                                        OUT
                                    ---                                        ---
   EVAPOTRANSPIRATION =        2.8026D+08     EVAPOTRANSPIRATION =          13582.92
           STREAMFLOW =        1.8853D+08             STREAMFLOW =           6275.39
     GW BOUNDARY FLOW =        4214391.93       GW BOUNDARY FLOW =            723.83

   INFLOWS - OUTFLOWS =       -7683512.48     INFLOWS - OUTFLOWS =         -20582.14
             --------                                   --------

 TOTAL STORAGE CHANGE =       -7668544.60         STORAGE CHANGE =         -20577.75
       --------------                             --------------
         LAND SURFACE =        7.9381D-09           LAND SURFACE =                  
            SOIL ZONE =         146137.47              SOIL ZONE =           -210.42
     UNSATURATED ZONE =        3644705.34       UNSATURATED ZONE =         -21530.42
       SATURATED ZONE =       -1.1459D+07         SATURATED ZONE =           1163.09

 OVERALL BUDGET ERROR =         -14967.88           BUDGET ERROR =             -4.39


  PERCENT DISCREPANCY =             -0.00    PERCENT DISCREPANCY =             -0.02



1
 SUMMARY VOLUMETRIC BUDGET FOR GSFLOW 
 DATE: 09 17 1996              CUMULATIVE TIME STEP:    5831
 MODFLOW STRESS PERIOD      2     CURRENT TIME STEP:    5831     ITERATIONS:      14

 -----------------------------------------------------------------------------------

   CUMULATIVE VOLUMES               L**3   RATES FOR THIS TIME STEP           L**3/T
   ------------------                      ------------------------

                                     IN                                         IN
                                     --                                         --
        PRECIPITATION =        4.6637D+08          PRECIPITATION =                  
           STREAMFLOW =                               STREAMFLOW =                  
     GW BOUNDARY FLOW =                         GW BOUNDARY FLOW =                  


                                    OUT                                        OUT
                                    ---                                        ---
   EVAPOTRANSPIRATION =        2.8042D+08     EVAPOTRANSPIRATION =          52774.70
           STREAMFLOW =        1.8859D+08             STREAMFLOW =          10495.88
     GW BOUNDARY FLOW =        4219459.75       GW BOUNDARY FLOW =            724.44

   INFLOWS - OUTFLOWS =       -6870873.73     INFLOWS - OUTFLOWS =         -63995.02
             --------                                   --------

 TOTAL STORAGE CHANGE =       -6855853.46         STORAGE CHANGE =         -63986.64
       --------------                             --------------
         LAND SURFACE =            821.85           LAND SURFACE =         -33683.21
            SOIL ZONE =        1097763.17              SOIL ZONE =         -10196.49
     UNSATURATED ZONE =        3496979.55       UNSATURATED ZONE =         -20443.62
       SATURATED ZONE =       -1.1451D+07         SATURATED ZONE =            336.67

 OVERALL BUDGET ERROR =         -15020.26           BUDGET ERROR =             -8.37


  PERCENT DISCREPANCY =             -0.00    PERCENT DISCREPANCY =             -0.01



1
 SUMMARY VOLUMETRIC BUDGET FOR GSFLOW 
 DATE: 09 24 1996              CUMULATIVE TIME STEP:    5838
 MODFLOW STRESS PERIOD      2     CURRENT TIME STEP:    5838     ITERATIONS:      11

 -----------------------------------------------------------------------------------

   CUMULATIVE VOLUMES               L**3   RATES FOR THIS TIME STEP           L**3/T
   ------------------                      ------------------------

                                     IN                                         IN
                                     --                                         --
        PRECIPITATION =        4.6637D+08          PRECIPITATION =                  
           STREAMFLOW =                               STREAMFLOW =                  
     GW BOUNDARY FLOW =                         GW BOUNDARY FLOW =                  


                                    OUT                                        OUT
                                    ---                                        ---
   EVAPOTRANSPIRATION =        2.8092D+08     EVAPOTRANSPIRATION =          56360.39
           STREAMFLOW =        1.8865D+08             STREAMFLOW =           6971.04
     GW BOUNDARY FLOW =        4224526.22       GW BOUNDARY FLOW =            723.40

   INFLOWS - OUTFLOWS =       -7423479.90     INFLOWS - OUTFLOWS =         -64054.83
             --------                                   --------

 TOTAL STORAGE CHANGE =       -7408411.06         STORAGE CHANGE =         -64046.93
       --------------                             --------------
         LAND SURFACE =        7.9410D-09           LAND SURFACE =                  
            SOIL ZONE =         686152.57              SOIL ZONE =         -44108.57
     UNSATURATED ZONE =        3357346.19       UNSATURATED ZONE =         -19523.24
       SATURATED ZONE =       -1.1452D+07         SATURATED ZONE =           -415.12

 OVERALL BUDGET ERROR =         -15068.84           BUDGET ERROR =             -7.90


  PERCENT DISCREPANCY =             -0.00    PERCENT DISCREPANCY =             -0.01



