1
 SUMMARY VOLUMETRIC BUDGET FOR GSFLOW 
 DATE: 10 07 1980              CUMULATIVE TIME STEP:       7
 MODFLOW STRESS PERIOD      2     CURRENT TIME STEP:       7     ITERATIONS:       4

 -----------------------------------------------------------------------------------

   CUMULATIVE VOLUMES               L**3   RATES FOR THIS TIME STEP           L**3/T
   ------------------                      ------------------------

                                     IN                                         IN
                                     --                                         --
        PRECIPITATION =                            PRECIPITATION =                  
           STREAMFLOW =                               STREAMFLOW =                  
     GW BOUNDARY FLOW =                         GW BOUNDARY FLOW =                  


                                    OUT                                        OUT
                                    ---                                        ---
   EVAPOTRANSPIRATION =          66584.99     EVAPOTRANSPIRATION =           9273.15
           STREAMFLOW =          43083.77             STREAMFLOW =           6083.68
     GW BOUNDARY FLOW =           5067.92       GW BOUNDARY FLOW =            723.90

   INFLOWS - OUTFLOWS =        -114736.68     INFLOWS - OUTFLOWS =         -16080.72
             --------                                   --------

 TOTAL STORAGE CHANGE =        -114490.82         STORAGE CHANGE =         -16044.73
       --------------                             --------------
         LAND SURFACE =                             LAND SURFACE =                  
            SOIL ZONE =          43861.47              SOIL ZONE =           6413.98
     UNSATURATED ZONE =        -144994.60       UNSATURATED ZONE =         -20387.93
       SATURATED ZONE =         -13357.69         SATURATED ZONE =          -2070.78

 OVERALL BUDGET ERROR =           -245.86           BUDGET ERROR =            -35.99


  PERCENT DISCREPANCY =             -0.21    PERCENT DISCREPANCY =             -0.22



1
 SUMMARY VOLUMETRIC BUDGET FOR GSFLOW 
 DATE: 10 14 1980              CUMULATIVE TIME STEP:      14
 MODFLOW STRESS PERIOD      2     CURRENT TIME STEP:      14     ITERATIONS:       4

 -----------------------------------------------------------------------------------

   CUMULATIVE VOLUMES               L**3   RATES FOR THIS TIME STEP           L**3/T
   ------------------                      ------------------------

                                     IN                                         IN
                                     --                                         --
        PRECIPITATION =         650779.83          PRECIPITATION =         164754.40
           STREAMFLOW =                               STREAMFLOW =                  
     GW BOUNDARY FLOW =                         GW BOUNDARY FLOW =                  


                                    OUT                                        OUT
                                    ---                                        ---
   EVAPOTRANSPIRATION =         162738.43     EVAPOTRANSPIRATION =          11475.98
           STREAMFLOW =          94475.56             STREAMFLOW =           7694.84
     GW BOUNDARY FLOW =          10135.85       GW BOUNDARY FLOW =            724.16

   INFLOWS - OUTFLOWS =         383429.99     INFLOWS - OUTFLOWS =         144859.41
             --------                                   --------

 TOTAL STORAGE CHANGE =         383933.05         STORAGE CHANGE =         144897.07
       --------------                             --------------
         LAND SURFACE =         183651.29           LAND SURFACE =         130477.11
            SOIL ZONE =         513666.23              SOIL ZONE =          36520.42
     UNSATURATED ZONE =        -284752.21       UNSATURATED ZONE =         -19612.05
       SATURATED ZONE =         -28632.26         SATURATED ZONE =          -2488.41

 OVERALL BUDGET ERROR =           -503.06           BUDGET ERROR =            -37.66


  PERCENT DISCREPANCY =             -0.08    PERCENT DISCREPANCY =             -0.02



1
 SUMMARY VOLUMETRIC BUDGET FOR GSFLOW 
 DATE: 10 21 1980              CUMULATIVE TIME STEP:      21
 MODFLOW STRESS PERIOD      2     CURRENT TIME STEP:      21     ITERATIONS:       5

 -----------------------------------------------------------------------------------

   CUMULATIVE VOLUMES               L**3   RATES FOR THIS TIME STEP           L**3/T
   ------------------                      ------------------------

                                     IN                                         IN
                                     --                                         --
        PRECIPITATION =         733157.03          PRECIPITATION =                  
           STREAMFLOW =                               STREAMFLOW =                  
     GW BOUNDARY FLOW =                         GW BOUNDARY FLOW =                  


                                    OUT                                        OUT
                                    ---                                        ---
   EVAPOTRANSPIRATION =         433115.15     EVAPOTRANSPIRATION =          44100.11
           STREAMFLOW =         145621.93             STREAMFLOW =           6837.19
     GW BOUNDARY FLOW =          15203.99       GW BOUNDARY FLOW =            723.90

   INFLOWS - OUTFLOWS =         139215.95     INFLOWS - OUTFLOWS =         -51661.20
             --------                                   --------

 TOTAL STORAGE CHANGE =         139953.74         STORAGE CHANGE =         -51628.63
       --------------                             --------------
         LAND SURFACE =        8.2991D-12           LAND SURFACE =                  
            SOIL ZONE =         607137.93              SOIL ZONE =         -29658.57
     UNSATURATED ZONE =        -418693.62       UNSATURATED ZONE =         -18777.86
       SATURATED ZONE =         -48490.56         SATURATED ZONE =          -3192.20

 OVERALL BUDGET ERROR =           -737.79           BUDGET ERROR =            -32.57


  PERCENT DISCREPANCY =             -0.10    PERCENT DISCREPANCY =             -0.06



1
 SUMMARY VOLUMETRIC BUDGET FOR GSFLOW 
 DATE: 10 28 1980              CUMULATIVE TIME STEP:      28
 MODFLOW STRESS PERIOD      2     CURRENT TIME STEP:      28     ITERATIONS:       5

 -----------------------------------------------------------------------------------

   CUMULATIVE VOLUMES               L**3   RATES FOR THIS TIME STEP           L**3/T
   ------------------                      ------------------------

                                     IN                                         IN
                                     --                                         --
        PRECIPITATION =        1070903.52          PRECIPITATION =                  
           STREAMFLOW =                               STREAMFLOW =                  
     GW BOUNDARY FLOW =                         GW BOUNDARY FLOW =                  


                                    OUT                                        OUT
                                    ---                                        ---
   EVAPOTRANSPIRATION =         622939.07     EVAPOTRANSPIRATION =          24687.16
           STREAMFLOW =         198784.40             STREAMFLOW =           7730.60
     GW BOUNDARY FLOW =          20271.35       GW BOUNDARY FLOW =            723.97

   INFLOWS - OUTFLOWS =         228908.70     INFLOWS - OUTFLOWS =         -33141.73
             --------                                   --------

 TOTAL STORAGE CHANGE =         229872.26         STORAGE CHANGE =         -33110.25
       --------------                             --------------
         LAND SURFACE =          20524.24           LAND SURFACE =         -29854.69
            SOIL ZONE =         828684.91              SOIL ZONE =          18383.91
     UNSATURATED ZONE =        -546943.38       UNSATURATED ZONE =         -17955.17
       SATURATED ZONE =         -72393.50         SATURATED ZONE =          -3684.30

 OVERALL BUDGET ERROR =           -963.56           BUDGET ERROR =            -31.49


  PERCENT DISCREPANCY =             -0.09    PERCENT DISCREPANCY =             -0.10



1
 SUMMARY VOLUMETRIC BUDGET FOR GSFLOW 
 DATE: 11 04 1980              CUMULATIVE TIME STEP:      35
 MODFLOW STRESS PERIOD      2     CURRENT TIME STEP:      35     ITERATIONS:       5

 -----------------------------------------------------------------------------------

   CUMULATIVE VOLUMES               L**3   RATES FOR THIS TIME STEP           L**3/T
   ------------------                      ------------------------

                                     IN                                         IN
                                     --                                         --
        PRECIPITATION =        1070903.52          PRECIPITATION =                  
           STREAMFLOW =                               STREAMFLOW =                  
     GW BOUNDARY FLOW =                         GW BOUNDARY FLOW =                  


                                    OUT                                        OUT
                                    ---                                        ---
   EVAPOTRANSPIRATION =         961498.11     EVAPOTRANSPIRATION =          44296.70
           STREAMFLOW =         249869.99             STREAMFLOW =           6858.62
     GW BOUNDARY FLOW =          25338.32       GW BOUNDARY FLOW =            723.76

   INFLOWS - OUTFLOWS =        -165802.89     INFLOWS - OUTFLOWS =         -51879.08
             --------                                   --------

 TOTAL STORAGE CHANGE =        -164623.53         STORAGE CHANGE =         -51847.20
       --------------                             --------------
         LAND SURFACE =       -3.6380D-12           LAND SURFACE =                  
            SOIL ZONE =         606314.79              SOIL ZONE =         -30210.48
     UNSATURATED ZONE =        -669943.02       UNSATURATED ZONE =         -17298.18
       SATURATED ZONE =        -100995.30         SATURATED ZONE =          -4338.53

 OVERALL BUDGET ERROR =          -1179.37           BUDGET ERROR =            -31.88


  PERCENT DISCREPANCY =             -0.10    PERCENT DISCREPANCY =             -0.06



1
 SUMMARY VOLUMETRIC BUDGET FOR GSFLOW 
 DATE: 11 11 1980              CUMULATIVE TIME STEP:      42
 MODFLOW STRESS PERIOD      2     CURRENT TIME STEP:      42     ITERATIONS:       5

 -----------------------------------------------------------------------------------

   CUMULATIVE VOLUMES               L**3   RATES FOR THIS TIME STEP           L**3/T
   ------------------                      ------------------------

                                     IN                                         IN
                                     --                                         --
        PRECIPITATION =        1573762.54          PRECIPITATION =         255182.19
           STREAMFLOW =                               STREAMFLOW =                  
     GW BOUNDARY FLOW =                         GW BOUNDARY FLOW =                  


                                    OUT                                        OUT
                                    ---                                        ---
   EVAPOTRANSPIRATION =        1193730.04     EVAPOTRANSPIRATION =          17114.35
           STREAMFLOW =         305131.53             STREAMFLOW =          10486.39
     GW BOUNDARY FLOW =          30405.06       GW BOUNDARY FLOW =            724.04

   INFLOWS - OUTFLOWS =          44495.92     INFLOWS - OUTFLOWS =         226857.41
             --------                                   --------

 TOTAL STORAGE CHANGE =          45894.63         STORAGE CHANGE =         226887.77
       --------------                             --------------
         LAND SURFACE =          76836.68           LAND SURFACE =          76836.68
            SOIL ZONE =         889270.33              SOIL ZONE =         170796.24
     UNSATURATED ZONE =        -788159.21       UNSATURATED ZONE =         -16553.53
       SATURATED ZONE =        -132053.17         SATURATED ZONE =          -4191.62

 OVERALL BUDGET ERROR =          -1398.71           BUDGET ERROR =            -30.36


  PERCENT DISCREPANCY =             -0.09    PERCENT DISCREPANCY =             -0.01



1
 SUMMARY VOLUMETRIC BUDGET FOR GSFLOW 
 DATE: 11 18 1980              CUMULATIVE TIME STEP:      49
 MODFLOW STRESS PERIOD      2     CURRENT TIME STEP:      49     ITERATIONS:       5

 -----------------------------------------------------------------------------------

   CUMULATIVE VOLUMES               L**3   RATES FOR THIS TIME STEP           L**3/T
   ------------------                      ------------------------

                                     IN                                         IN
                                     --                                         --
        PRECIPITATION =        1573762.54          PRECIPITATION =                  
           STREAMFLOW =                               STREAMFLOW =                  
     GW BOUNDARY FLOW =                         GW BOUNDARY FLOW =                  


                                    OUT                                        OUT
                                    ---                                        ---
   EVAPOTRANSPIRATION =        1290530.06     EVAPOTRANSPIRATION =          23211.10
           STREAMFLOW =         366145.01             STREAMFLOW =           9006.56
     GW BOUNDARY FLOW =          35473.20       GW BOUNDARY FLOW =            724.04

   INFLOWS - OUTFLOWS =        -118385.73     INFLOWS - OUTFLOWS =         -32941.70
             --------                                   --------

 TOTAL STORAGE CHANGE =        -116789.05         STORAGE CHANGE =         -32914.34
       --------------                             --------------
         LAND SURFACE =           5214.84           LAND SURFACE =          -7686.44
            SOIL ZONE =         945784.88              SOIL ZONE =          -4284.85
     UNSATURATED ZONE =        -901679.68       UNSATURATED ZONE =         -15946.51
       SATURATED ZONE =        -166109.08         SATURATED ZONE =          -4996.54

 OVERALL BUDGET ERROR =          -1596.68           BUDGET ERROR =            -27.36


  PERCENT DISCREPANCY =             -0.09    PERCENT DISCREPANCY =             -0.08



1
 SUMMARY VOLUMETRIC BUDGET FOR GSFLOW 
 DATE: 11 25 1980              CUMULATIVE TIME STEP:      56
 MODFLOW STRESS PERIOD      2     CURRENT TIME STEP:      56     ITERATIONS:       8

 -----------------------------------------------------------------------------------

   CUMULATIVE VOLUMES               L**3   RATES FOR THIS TIME STEP           L**3/T
   ------------------                      ------------------------

                                     IN                                         IN
                                     --                                         --
        PRECIPITATION =        1648816.13          PRECIPITATION =                  
           STREAMFLOW =                               STREAMFLOW =                  
     GW BOUNDARY FLOW =                         GW BOUNDARY FLOW =                  


                                    OUT                                        OUT
                                    ---                                        ---
   EVAPOTRANSPIRATION =        1379811.22     EVAPOTRANSPIRATION =           9277.87
           STREAMFLOW =         429502.13             STREAMFLOW =           9157.62
     GW BOUNDARY FLOW =          40541.61       GW BOUNDARY FLOW =            724.07

   INFLOWS - OUTFLOWS =        -201038.83     INFLOWS - OUTFLOWS =         -19159.56
             --------                                   --------

 TOTAL STORAGE CHANGE =        -199274.49         STORAGE CHANGE =         -19137.09
       --------------                             --------------
         LAND SURFACE =          53014.08           LAND SURFACE =          -9258.02
            SOIL ZONE =         962162.18              SOIL ZONE =          11043.96
     UNSATURATED ZONE =       -1010848.18       UNSATURATED ZONE =         -15323.49
       SATURATED ZONE =        -203602.58         SATURATED ZONE =          -5599.54

 OVERALL BUDGET ERROR =          -1764.34           BUDGET ERROR =            -22.47


  PERCENT DISCREPANCY =             -0.10    PERCENT DISCREPANCY =             -0.12



1
 SUMMARY VOLUMETRIC BUDGET FOR GSFLOW 
 DATE: 12 02 1980              CUMULATIVE TIME STEP:      63
 MODFLOW STRESS PERIOD      2     CURRENT TIME STEP:      63     ITERATIONS:       6

 -----------------------------------------------------------------------------------

   CUMULATIVE VOLUMES               L**3   RATES FOR THIS TIME STEP           L**3/T
   ------------------                      ------------------------

                                     IN                                         IN
                                     --                                         --
        PRECIPITATION =        2076621.55          PRECIPITATION =                  
           STREAMFLOW =                               STREAMFLOW =                  
     GW BOUNDARY FLOW =                         GW BOUNDARY FLOW =                  


                                    OUT                                        OUT
                                    ---                                        ---
   EVAPOTRANSPIRATION =        1590327.93     EVAPOTRANSPIRATION =          35191.11
           STREAMFLOW =         503321.83             STREAMFLOW =          12783.46
     GW BOUNDARY FLOW =          45611.20       GW BOUNDARY FLOW =            724.52

   INFLOWS - OUTFLOWS =         -62639.40     INFLOWS - OUTFLOWS =         -48699.09
             --------                                   --------

 TOTAL STORAGE CHANGE =         -60709.91         STORAGE CHANGE =         -48678.38
       --------------                             --------------
         LAND SURFACE =         139391.41           LAND SURFACE =         -82011.29
            SOIL ZONE =        1156293.64              SOIL ZONE =          52103.81
     UNSATURATED ZONE =       -1113761.08       UNSATURATED ZONE =         -13605.64
       SATURATED ZONE =        -242633.87         SATURATED ZONE =          -5165.26

 OVERALL BUDGET ERROR =          -1929.49           BUDGET ERROR =            -20.71


  PERCENT DISCREPANCY =             -0.09    PERCENT DISCREPANCY =             -0.04



1
 SUMMARY VOLUMETRIC BUDGET FOR GSFLOW 
 DATE: 12 09 1980              CUMULATIVE TIME STEP:      70
 MODFLOW STRESS PERIOD      2     CURRENT TIME STEP:      70     ITERATIONS:       5

 -----------------------------------------------------------------------------------

   CUMULATIVE VOLUMES               L**3   RATES FOR THIS TIME STEP           L**3/T
   ------------------                      ------------------------

                                     IN                                         IN
                                     --                                         --
        PRECIPITATION =        4284363.63          PRECIPITATION =                  
           STREAMFLOW =                               STREAMFLOW =                  
     GW BOUNDARY FLOW =                         GW BOUNDARY FLOW =                  


                                    OUT                                        OUT
                                    ---                                        ---
   EVAPOTRANSPIRATION =        1616889.89     EVAPOTRANSPIRATION =           4181.54
           STREAMFLOW =         588178.40             STREAMFLOW =          12588.25
     GW BOUNDARY FLOW =          50683.45       GW BOUNDARY FLOW =            724.69

   INFLOWS - OUTFLOWS =        2028611.90     INFLOWS - OUTFLOWS =         -17494.47
             --------                                   --------

 TOTAL STORAGE CHANGE =        2030708.93         STORAGE CHANGE =         -17469.67
       --------------                             --------------
         LAND SURFACE =        2318907.18           LAND SURFACE =          -4181.54
            SOIL ZONE =        1207909.69              SOIL ZONE =           6938.99
     UNSATURATED ZONE =       -1212721.85       UNSATURATED ZONE =         -14164.21
       SATURATED ZONE =        -283386.10         SATURATED ZONE =          -6062.91

 OVERALL BUDGET ERROR =          -2097.04           BUDGET ERROR =            -24.80


  PERCENT DISCREPANCY =             -0.05    PERCENT DISCREPANCY =             -0.14



1
 SUMMARY VOLUMETRIC BUDGET FOR GSFLOW 
 DATE: 12 16 1980              CUMULATIVE TIME STEP:      77
 MODFLOW STRESS PERIOD      2     CURRENT TIME STEP:      77     ITERATIONS:       6

 -----------------------------------------------------------------------------------

   CUMULATIVE VOLUMES               L**3   RATES FOR THIS TIME STEP           L**3/T
   ------------------                      ------------------------

                                     IN                                         IN
                                     --                                         --
        PRECIPITATION =        4284363.63          PRECIPITATION =                  
           STREAMFLOW =                               STREAMFLOW =                  
     GW BOUNDARY FLOW =                         GW BOUNDARY FLOW =                  


                                    OUT                                        OUT
                                    ---                                        ---
   EVAPOTRANSPIRATION =        1768349.30     EVAPOTRANSPIRATION =          35320.34
           STREAMFLOW =         695268.46             STREAMFLOW =          22925.77
     GW BOUNDARY FLOW =          55758.51       GW BOUNDARY FLOW =            725.63

   INFLOWS - OUTFLOWS =        1764987.36     INFLOWS - OUTFLOWS =         -58971.74
             --------                                   --------

 TOTAL STORAGE CHANGE =        1767230.83         STORAGE CHANGE =         -58951.77
       --------------                             --------------
         LAND SURFACE =        1969804.56           LAND SURFACE =        -143929.88
            SOIL ZONE =        1425091.59              SOIL ZONE =          99013.78
     UNSATURATED ZONE =       -1302972.99       UNSATURATED ZONE =          -9411.06
       SATURATED ZONE =        -324692.33         SATURATED ZONE =          -4624.61

 OVERALL BUDGET ERROR =          -2243.47           BUDGET ERROR =            -19.97


  PERCENT DISCREPANCY =             -0.05    PERCENT DISCREPANCY =             -0.03



1
 SUMMARY VOLUMETRIC BUDGET FOR GSFLOW 
 DATE: 12 23 1980              CUMULATIVE TIME STEP:      84
 MODFLOW STRESS PERIOD      2     CURRENT TIME STEP:      84     ITERATIONS:       7

 -----------------------------------------------------------------------------------

   CUMULATIVE VOLUMES               L**3   RATES FOR THIS TIME STEP           L**3/T
   ------------------                      ------------------------

                                     IN                                         IN
                                     --                                         --
        PRECIPITATION =        4516757.53          PRECIPITATION =                  
           STREAMFLOW =                               STREAMFLOW =                  
     GW BOUNDARY FLOW =                         GW BOUNDARY FLOW =                  


                                    OUT                                        OUT
                                    ---                                        ---
   EVAPOTRANSPIRATION =        1976152.78     EVAPOTRANSPIRATION =          34686.16
           STREAMFLOW =         923907.86             STREAMFLOW =          31899.78
     GW BOUNDARY FLOW =          60850.45       GW BOUNDARY FLOW =            728.24

   INFLOWS - OUTFLOWS =        1555846.45     INFLOWS - OUTFLOWS =         -67314.17
             --------                                   --------

 TOTAL STORAGE CHANGE =        1558183.91         STORAGE CHANGE =         -67303.72
       --------------                             --------------
         LAND SURFACE =        1249758.75           LAND SURFACE =         -62897.12
            SOIL ZONE =        2006649.75              SOIL ZONE =           5361.16
     UNSATURATED ZONE =       -1345618.01       UNSATURATED ZONE =          -5499.02
       SATURATED ZONE =        -352606.58         SATURATED ZONE =          -4268.74

 OVERALL BUDGET ERROR =          -2337.45           BUDGET ERROR =            -10.45


  PERCENT DISCREPANCY =             -0.05    PERCENT DISCREPANCY =             -0.02



1
 SUMMARY VOLUMETRIC BUDGET FOR GSFLOW 
 DATE: 12 30 1980              CUMULATIVE TIME STEP:      91
 MODFLOW STRESS PERIOD      2     CURRENT TIME STEP:      91     ITERATIONS:       8

 -----------------------------------------------------------------------------------

   CUMULATIVE VOLUMES               L**3   RATES FOR THIS TIME STEP           L**3/T
   ------------------                      ------------------------

                                     IN                                         IN
                                     --                                         --
        PRECIPITATION =        4516757.53          PRECIPITATION =                  
           STREAMFLOW =                               STREAMFLOW =                  
     GW BOUNDARY FLOW =                         GW BOUNDARY FLOW =                  


                                    OUT                                        OUT
                                    ---                                        ---
   EVAPOTRANSPIRATION =        2322623.90     EVAPOTRANSPIRATION =          45561.04
           STREAMFLOW =        1185738.15             STREAMFLOW =          27305.41
     GW BOUNDARY FLOW =          65953.17       GW BOUNDARY FLOW =            728.83

   INFLOWS - OUTFLOWS =         942442.32     INFLOWS - OUTFLOWS =         -73595.29
             --------                                   --------

 TOTAL STORAGE CHANGE =         944790.77         STORAGE CHANGE =         -73593.52
       --------------                             --------------
         LAND SURFACE =         439780.28           LAND SURFACE =         -36668.82
            SOIL ZONE =        2234872.24              SOIL ZONE =         -29007.72
     UNSATURATED ZONE =       -1353078.71       UNSATURATED ZONE =          -3560.29
       SATURATED ZONE =        -376783.04         SATURATED ZONE =          -4356.69

 OVERALL BUDGET ERROR =          -2348.45           BUDGET ERROR =             -1.77


  PERCENT DISCREPANCY =             -0.05    PERCENT DISCREPANCY =             -0.00



1
 SUMMARY VOLUMETRIC BUDGET FOR GSFLOW 
 DATE: 01 06 1981              CUMULATIVE TIME STEP:      98
 MODFLOW STRESS PERIOD      2     CURRENT TIME STEP:      98     ITERATIONS:       6

 -----------------------------------------------------------------------------------

   CUMULATIVE VOLUMES               L**3   RATES FOR THIS TIME STEP           L**3/T
   ------------------                      ------------------------

                                     IN                                         IN
                                     --                                         --
        PRECIPITATION =        5004445.43          PRECIPITATION =                  
           STREAMFLOW =                               STREAMFLOW =                  
     GW BOUNDARY FLOW =                         GW BOUNDARY FLOW =                  


                                    OUT                                        OUT
                                    ---                                        ---
   EVAPOTRANSPIRATION =        2541631.24     EVAPOTRANSPIRATION =          21275.40
           STREAMFLOW =        1327782.43             STREAMFLOW =          19122.18
     GW BOUNDARY FLOW =          71045.42       GW BOUNDARY FLOW =            726.79

   INFLOWS - OUTFLOWS =        1063986.34     INFLOWS - OUTFLOWS =         -41124.38
             --------                                   --------

 TOTAL STORAGE CHANGE =        1066390.65         STORAGE CHANGE =         -41113.09
       --------------                             --------------
         LAND SURFACE =         704151.62           LAND SURFACE =         -29065.37
            SOIL ZONE =        2199826.79              SOIL ZONE =           5236.53
     UNSATURATED ZONE =       -1420908.19       UNSATURATED ZONE =         -11116.12
       SATURATED ZONE =        -416679.58         SATURATED ZONE =          -6168.13

 OVERALL BUDGET ERROR =          -2404.31           BUDGET ERROR =            -11.29


  PERCENT DISCREPANCY =             -0.05    PERCENT DISCREPANCY =             -0.03



1
 SUMMARY VOLUMETRIC BUDGET FOR GSFLOW 
 DATE: 01 13 1981              CUMULATIVE TIME STEP:     105
 MODFLOW STRESS PERIOD      2     CURRENT TIME STEP:     105     ITERATIONS:       5

 -----------------------------------------------------------------------------------

   CUMULATIVE VOLUMES               L**3   RATES FOR THIS TIME STEP           L**3/T
   ------------------                      ------------------------

                                     IN                                         IN
                                     --                                         --
        PRECIPITATION =        5004445.43          PRECIPITATION =                  
           STREAMFLOW =                               STREAMFLOW =                  
     GW BOUNDARY FLOW =                         GW BOUNDARY FLOW =                  


                                    OUT                                        OUT
                                    ---                                        ---
   EVAPOTRANSPIRATION =        2745788.72     EVAPOTRANSPIRATION =          43069.81
           STREAMFLOW =        1476638.87             STREAMFLOW =          20574.62
     GW BOUNDARY FLOW =          76132.42       GW BOUNDARY FLOW =            726.61

   INFLOWS - OUTFLOWS =         705885.42     INFLOWS - OUTFLOWS =         -64371.04
             --------                                   --------

 TOTAL STORAGE CHANGE =         708382.07         STORAGE CHANGE =         -64352.93
       --------------                             --------------
         LAND SURFACE =         444072.82           LAND SURFACE =         -42032.56
            SOIL ZONE =        2202874.86              SOIL ZONE =          -9502.73
     UNSATURATED ZONE =       -1478322.20       UNSATURATED ZONE =          -6393.35
       SATURATED ZONE =        -460243.41         SATURATED ZONE =          -6424.29

 OVERALL BUDGET ERROR =          -2496.65           BUDGET ERROR =            -18.11


  PERCENT DISCREPANCY =             -0.05    PERCENT DISCREPANCY =             -0.03



1
 SUMMARY VOLUMETRIC BUDGET FOR GSFLOW 
 DATE: 01 20 1981              CUMULATIVE TIME STEP:     112
 MODFLOW STRESS PERIOD      2     CURRENT TIME STEP:     112     ITERATIONS:       6

 -----------------------------------------------------------------------------------

   CUMULATIVE VOLUMES               L**3   RATES FOR THIS TIME STEP           L**3/T
   ------------------                      ------------------------

                                     IN                                         IN
                                     --                                         --
        PRECIPITATION =        5170466.84          PRECIPITATION =          41505.35
           STREAMFLOW =                               STREAMFLOW =                  
     GW BOUNDARY FLOW =                         GW BOUNDARY FLOW =                  


                                    OUT                                        OUT
                                    ---                                        ---
   EVAPOTRANSPIRATION =        3041288.04     EVAPOTRANSPIRATION =          53840.53
           STREAMFLOW =        1608689.67             STREAMFLOW =          18477.15
     GW BOUNDARY FLOW =          81216.41       GW BOUNDARY FLOW =            726.13

   INFLOWS - OUTFLOWS =         439272.72     INFLOWS - OUTFLOWS =         -31538.45
             --------                                   --------

 TOTAL STORAGE CHANGE =         441860.30         STORAGE CHANGE =         -31529.28
       --------------                             --------------
         LAND SURFACE =         314149.72           LAND SURFACE =           8327.11
            SOIL ZONE =        2140889.23              SOIL ZONE =         -31510.94
     UNSATURATED ZONE =       -1504833.15       UNSATURATED ZONE =          -1261.85
       SATURATED ZONE =        -508345.50         SATURATED ZONE =          -7083.60

 OVERALL BUDGET ERROR =          -2587.58           BUDGET ERROR =             -9.17


  PERCENT DISCREPANCY =             -0.05    PERCENT DISCREPANCY =             -0.01



1
 SUMMARY VOLUMETRIC BUDGET FOR GSFLOW 
 DATE: 01 27 1981              CUMULATIVE TIME STEP:     119
 MODFLOW STRESS PERIOD      2     CURRENT TIME STEP:     119     ITERATIONS:       5

 -----------------------------------------------------------------------------------

   CUMULATIVE VOLUMES               L**3   RATES FOR THIS TIME STEP           L**3/T
   ------------------                      ------------------------

                                     IN                                         IN
                                     --                                         --
        PRECIPITATION =        8646540.08          PRECIPITATION =        2936503.64
           STREAMFLOW =                               STREAMFLOW =                  
     GW BOUNDARY FLOW =                         GW BOUNDARY FLOW =                  


                                    OUT                                        OUT
                                    ---                                        ---
   EVAPOTRANSPIRATION =        3265755.48     EVAPOTRANSPIRATION =          12594.32
           STREAMFLOW =        1735864.04             STREAMFLOW =          17056.42
     GW BOUNDARY FLOW =          86298.30       GW BOUNDARY FLOW =            725.80

   INFLOWS - OUTFLOWS =        3558622.26     INFLOWS - OUTFLOWS =        2906127.10
             --------                                   --------

 TOTAL STORAGE CHANGE =        3561261.41         STORAGE CHANGE =        2906138.32
       --------------                             --------------
         LAND SURFACE =        3477699.45           LAND SURFACE =        2923909.34
            SOIL ZONE =        2163508.92              SOIL ZONE =          -2997.91
     UNSATURATED ZONE =       -1520467.15       UNSATURATED ZONE =          -7071.67
       SATURATED ZONE =        -559479.81         SATURATED ZONE =          -7701.44

 OVERALL BUDGET ERROR =          -2639.15           BUDGET ERROR =            -11.22


  PERCENT DISCREPANCY =             -0.03    PERCENT DISCREPANCY =             -0.00



1
 SUMMARY VOLUMETRIC BUDGET FOR GSFLOW 
 DATE: 02 03 1981              CUMULATIVE TIME STEP:     126
 MODFLOW STRESS PERIOD      2     CURRENT TIME STEP:     126     ITERATIONS:       5

 -----------------------------------------------------------------------------------

   CUMULATIVE VOLUMES               L**3   RATES FOR THIS TIME STEP           L**3/T
   ------------------                      ------------------------

                                     IN                                         IN
                                     --                                         --
        PRECIPITATION =        1.1739D+07          PRECIPITATION =                  
           STREAMFLOW =                               STREAMFLOW =                  
     GW BOUNDARY FLOW =                         GW BOUNDARY FLOW =                  


                                    OUT                                        OUT
                                    ---                                        ---
   EVAPOTRANSPIRATION =        3303099.10     EVAPOTRANSPIRATION =           8129.77
           STREAMFLOW =        1856075.67             STREAMFLOW =          17377.08
     GW BOUNDARY FLOW =          91378.35       GW BOUNDARY FLOW =            725.71

   INFLOWS - OUTFLOWS =        6488135.66     INFLOWS - OUTFLOWS =         -26232.57
             --------                                   --------

 TOTAL STORAGE CHANGE =        6490800.99         STORAGE CHANGE =         -26221.70
       --------------                             --------------
         LAND SURFACE =        6532504.52           LAND SURFACE =          -8129.77
            SOIL ZONE =        2165630.22              SOIL ZONE =           1142.56
     UNSATURATED ZONE =       -1591727.39       UNSATURATED ZONE =         -10886.26
       SATURATED ZONE =        -615606.36         SATURATED ZONE =          -8348.23

 OVERALL BUDGET ERROR =          -2665.34           BUDGET ERROR =            -10.86


  PERCENT DISCREPANCY =             -0.02    PERCENT DISCREPANCY =             -0.04



1
 SUMMARY VOLUMETRIC BUDGET FOR GSFLOW 
 DATE: 02 10 1981              CUMULATIVE TIME STEP:     133
 MODFLOW STRESS PERIOD      2     CURRENT TIME STEP:     133     ITERATIONS:      10

 -----------------------------------------------------------------------------------

   CUMULATIVE VOLUMES               L**3   RATES FOR THIS TIME STEP           L**3/T
   ------------------                      ------------------------

                                     IN                                         IN
                                     --                                         --
        PRECIPITATION =        1.1838D+07          PRECIPITATION =                  
           STREAMFLOW =                               STREAMFLOW =                  
     GW BOUNDARY FLOW =                         GW BOUNDARY FLOW =                  


                                    OUT                                        OUT
                                    ---                                        ---
   EVAPOTRANSPIRATION =        3436903.78     EVAPOTRANSPIRATION =          34655.69
           STREAMFLOW =        1979149.04             STREAMFLOW =          17685.60
     GW BOUNDARY FLOW =          96458.63       GW BOUNDARY FLOW =            725.76

   INFLOWS - OUTFLOWS =        6325741.84     INFLOWS - OUTFLOWS =         -53067.05
             --------                                   --------

 TOTAL STORAGE CHANGE =        6328445.17         STORAGE CHANGE =         -53063.09
       --------------                             --------------
         LAND SURFACE =        6498264.35           LAND SURFACE =         -34655.69
            SOIL ZONE =        2172507.06              SOIL ZONE =            904.91
     UNSATURATED ZONE =       -1665912.42       UNSATURATED ZONE =         -10394.97
       SATURATED ZONE =        -676413.82         SATURATED ZONE =          -8917.35

 OVERALL BUDGET ERROR =          -2703.34           BUDGET ERROR =             -3.96


  PERCENT DISCREPANCY =             -0.02    PERCENT DISCREPANCY =             -0.01



1
 SUMMARY VOLUMETRIC BUDGET FOR GSFLOW 
 DATE: 02 17 1981              CUMULATIVE TIME STEP:     140
 MODFLOW STRESS PERIOD      2     CURRENT TIME STEP:     140     ITERATIONS:      10

 -----------------------------------------------------------------------------------

   CUMULATIVE VOLUMES               L**3   RATES FOR THIS TIME STEP           L**3/T
   ------------------                      ------------------------

                                     IN                                         IN
                                     --                                         --
        PRECIPITATION =        1.2765D+07          PRECIPITATION =          68929.28
           STREAMFLOW =                               STREAMFLOW =                  
     GW BOUNDARY FLOW =                         GW BOUNDARY FLOW =                  


                                    OUT                                        OUT
                                    ---                                        ---
   EVAPOTRANSPIRATION =        3781020.14     EVAPOTRANSPIRATION =          68547.05
           STREAMFLOW =        2504152.85             STREAMFLOW =         125700.37
     GW BOUNDARY FLOW =         101566.73       GW BOUNDARY FLOW =            734.36

   INFLOWS - OUTFLOWS =        6378229.39     INFLOWS - OUTFLOWS =        -126052.50
             --------                                   --------

 TOTAL STORAGE CHANGE =        6380954.20         STORAGE CHANGE =        -126061.22
       --------------                             --------------
         LAND SURFACE =        5531299.83           LAND SURFACE =        -291244.27
            SOIL ZONE =        2964506.56              SOIL ZONE =          81787.96
     UNSATURATED ZONE =       -1418463.45       UNSATURATED ZONE =          81259.55
       SATURATED ZONE =        -696388.73         SATURATED ZONE =           2135.54

 OVERALL BUDGET ERROR =          -2724.81           BUDGET ERROR =              8.72


  PERCENT DISCREPANCY =             -0.02    PERCENT DISCREPANCY =              0.00



1
 SUMMARY VOLUMETRIC BUDGET FOR GSFLOW 
 DATE: 02 24 1981              CUMULATIVE TIME STEP:     147
 MODFLOW STRESS PERIOD      2     CURRENT TIME STEP:     147     ITERATIONS:       9

 -----------------------------------------------------------------------------------

   CUMULATIVE VOLUMES               L**3   RATES FOR THIS TIME STEP           L**3/T
   ------------------                      ------------------------

                                     IN                                         IN
                                     --                                         --
        PRECIPITATION =        1.3179D+07          PRECIPITATION =         344646.37
           STREAMFLOW =                               STREAMFLOW =                  
     GW BOUNDARY FLOW =                         GW BOUNDARY FLOW =                  


                                    OUT                                        OUT
                                    ---                                        ---
   EVAPOTRANSPIRATION =        4131809.58     EVAPOTRANSPIRATION =          19833.49
           STREAMFLOW =        3102375.90             STREAMFLOW =          54409.77
     GW BOUNDARY FLOW =         106705.12       GW BOUNDARY FLOW =            732.76

   INFLOWS - OUTFLOWS =        5837654.16     INFLOWS - OUTFLOWS =         269670.34
             --------                                   --------

 TOTAL STORAGE CHANGE =        5840308.70         STORAGE CHANGE =         269662.92
       --------------                             --------------
         LAND SURFACE =        4822849.21           LAND SURFACE =         299393.23
            SOIL ZONE =        2717630.40              SOIL ZONE =         -64627.01
     UNSATURATED ZONE =       -1030239.36       UNSATURATED ZONE =          31766.84
       SATURATED ZONE =        -669931.56         SATURATED ZONE =           3129.86

 OVERALL BUDGET ERROR =          -2654.53           BUDGET ERROR =              7.42


  PERCENT DISCREPANCY =             -0.02    PERCENT DISCREPANCY =              0.00



1
 SUMMARY VOLUMETRIC BUDGET FOR GSFLOW 
 DATE: 03 03 1981              CUMULATIVE TIME STEP:     154
 MODFLOW STRESS PERIOD      2     CURRENT TIME STEP:     154     ITERATIONS:       8

 -----------------------------------------------------------------------------------

   CUMULATIVE VOLUMES               L**3   RATES FOR THIS TIME STEP           L**3/T
   ------------------                      ------------------------

                                     IN                                         IN
                                     --                                         --
        PRECIPITATION =        1.3447D+07          PRECIPITATION =                  
           STREAMFLOW =                               STREAMFLOW =                  
     GW BOUNDARY FLOW =                         GW BOUNDARY FLOW =                  


                                    OUT                                        OUT
                                    ---                                        ---
   EVAPOTRANSPIRATION =        4294444.63     EVAPOTRANSPIRATION =          44522.60
           STREAMFLOW =        3331163.52             STREAMFLOW =          27894.49
     GW BOUNDARY FLOW =         111814.71       GW BOUNDARY FLOW =            728.53

   INFLOWS - OUTFLOWS =        5709180.20     INFLOWS - OUTFLOWS =         -73145.62
             --------                                   --------

 TOTAL STORAGE CHANGE =        5711767.13         STORAGE CHANGE =         -73155.53
       --------------                             --------------
         LAND SURFACE =        4905587.46           LAND SURFACE =         -65328.28
            SOIL ZONE =        2489624.08              SOIL ZONE =           1837.99
     UNSATURATED ZONE =       -1013633.14       UNSATURATED ZONE =          -8260.79
       SATURATED ZONE =        -669811.27         SATURATED ZONE =          -1404.45

 OVERALL BUDGET ERROR =          -2586.93           BUDGET ERROR =              9.91


  PERCENT DISCREPANCY =             -0.02    PERCENT DISCREPANCY =              0.01



1
 SUMMARY VOLUMETRIC BUDGET FOR GSFLOW 
 DATE: 03 10 1981              CUMULATIVE TIME STEP:     161
 MODFLOW STRESS PERIOD      2     CURRENT TIME STEP:     161     ITERATIONS:      10

 -----------------------------------------------------------------------------------

   CUMULATIVE VOLUMES               L**3   RATES FOR THIS TIME STEP           L**3/T
   ------------------                      ------------------------

                                     IN                                         IN
                                     --                                         --
        PRECIPITATION =        1.3493D+07          PRECIPITATION =                  
           STREAMFLOW =                               STREAMFLOW =                  
     GW BOUNDARY FLOW =                         GW BOUNDARY FLOW =                  


                                    OUT                                        OUT
                                    ---                                        ---
   EVAPOTRANSPIRATION =        4611742.63     EVAPOTRANSPIRATION =          63410.55
           STREAMFLOW =        3574175.02             STREAMFLOW =          45759.76
     GW BOUNDARY FLOW =         116914.75       GW BOUNDARY FLOW =            729.56

   INFLOWS - OUTFLOWS =        5190108.76     INFLOWS - OUTFLOWS =        -109899.87
             --------                                   --------

 TOTAL STORAGE CHANGE =        5192662.74         STORAGE CHANGE =        -109901.91
       --------------                             --------------
         LAND SURFACE =        4224544.33           LAND SURFACE =        -168143.81
            SOIL ZONE =        2621355.35              SOIL ZONE =          34342.21
     UNSATURATED ZONE =        -974570.92       UNSATURATED ZONE =          23946.52
       SATURATED ZONE =        -678666.02         SATURATED ZONE =            -46.83

 OVERALL BUDGET ERROR =          -2553.98           BUDGET ERROR =              2.04


  PERCENT DISCREPANCY =             -0.02    PERCENT DISCREPANCY =              0.00



1
 SUMMARY VOLUMETRIC BUDGET FOR GSFLOW 
 DATE: 03 17 1981              CUMULATIVE TIME STEP:     168
 MODFLOW STRESS PERIOD      2     CURRENT TIME STEP:     168     ITERATIONS:       6

 -----------------------------------------------------------------------------------

   CUMULATIVE VOLUMES               L**3   RATES FOR THIS TIME STEP           L**3/T
   ------------------                      ------------------------

                                     IN                                         IN
                                     --                                         --
        PRECIPITATION =        1.3744D+07          PRECIPITATION =                  
           STREAMFLOW =                               STREAMFLOW =                  
     GW BOUNDARY FLOW =                         GW BOUNDARY FLOW =                  


                                    OUT                                        OUT
                                    ---                                        ---
   EVAPOTRANSPIRATION =        4968362.73     EVAPOTRANSPIRATION =          39557.80
           STREAMFLOW =        3812069.40             STREAMFLOW =          24637.52
     GW BOUNDARY FLOW =         122017.76       GW BOUNDARY FLOW =            728.22

   INFLOWS - OUTFLOWS =        4842041.01     INFLOWS - OUTFLOWS =         -64923.53
             --------                                   --------

 TOTAL STORAGE CHANGE =        4844533.91         STORAGE CHANGE =         -64922.38
       --------------                             --------------
         LAND SURFACE =        4040109.71           LAND SURFACE =         -39206.69
            SOIL ZONE =        2437497.19              SOIL ZONE =          -6208.34
     UNSATURATED ZONE =        -940598.55       UNSATURATED ZONE =         -15513.46
       SATURATED ZONE =        -692474.44         SATURATED ZONE =          -3993.89

 OVERALL BUDGET ERROR =          -2492.90           BUDGET ERROR =             -1.15


  PERCENT DISCREPANCY =             -0.02    PERCENT DISCREPANCY =             -0.00



1
 SUMMARY VOLUMETRIC BUDGET FOR GSFLOW 
 DATE: 03 24 1981              CUMULATIVE TIME STEP:     175
 MODFLOW STRESS PERIOD      2     CURRENT TIME STEP:     175     ITERATIONS:       6

 -----------------------------------------------------------------------------------

   CUMULATIVE VOLUMES               L**3   RATES FOR THIS TIME STEP           L**3/T
   ------------------                      ------------------------

                                     IN                                         IN
                                     --                                         --
        PRECIPITATION =        1.4367D+07          PRECIPITATION =                  
           STREAMFLOW =                               STREAMFLOW =                  
     GW BOUNDARY FLOW =                         GW BOUNDARY FLOW =                  


                                    OUT                                        OUT
                                    ---                                        ---
   EVAPOTRANSPIRATION =        5321420.19     EVAPOTRANSPIRATION =          85696.12
           STREAMFLOW =        3986916.58             STREAMFLOW =          27871.00
     GW BOUNDARY FLOW =         127110.52       GW BOUNDARY FLOW =            727.47

   INFLOWS - OUTFLOWS =        4931298.23     INFLOWS - OUTFLOWS =        -114294.59
             --------                                   --------

 TOTAL STORAGE CHANGE =        4933799.86         STORAGE CHANGE =        -114294.85
       --------------                             --------------
         LAND SURFACE =        4337113.67           LAND SURFACE =         -79271.42
            SOIL ZONE =        2341321.50              SOIL ZONE =         -26591.31
     UNSATURATED ZONE =       -1019118.91       UNSATURATED ZONE =          -3692.16
       SATURATED ZONE =        -725516.40         SATURATED ZONE =          -4739.97

 OVERALL BUDGET ERROR =          -2501.63           BUDGET ERROR =              0.27


  PERCENT DISCREPANCY =             -0.02    PERCENT DISCREPANCY =              0.00



1
 SUMMARY VOLUMETRIC BUDGET FOR GSFLOW 
 DATE: 03 31 1981              CUMULATIVE TIME STEP:     182
 MODFLOW STRESS PERIOD      2     CURRENT TIME STEP:     182     ITERATIONS:       8

 -----------------------------------------------------------------------------------

   CUMULATIVE VOLUMES               L**3   RATES FOR THIS TIME STEP           L**3/T
   ------------------                      ------------------------

                                     IN                                         IN
                                     --                                         --
        PRECIPITATION =        1.5777D+07          PRECIPITATION =                  
           STREAMFLOW =                               STREAMFLOW =                  
     GW BOUNDARY FLOW =                         GW BOUNDARY FLOW =                  


                                    OUT                                        OUT
                                    ---                                        ---
   EVAPOTRANSPIRATION =        5746930.14     EVAPOTRANSPIRATION =          55419.53
           STREAMFLOW =        4471383.32             STREAMFLOW =          36220.66
     GW BOUNDARY FLOW =         132229.70       GW BOUNDARY FLOW =            730.14

   INFLOWS - OUTFLOWS =        5426204.84     INFLOWS - OUTFLOWS =         -92370.33
             --------                                   --------

 TOTAL STORAGE CHANGE =        5428655.57         STORAGE CHANGE =         -92380.12
       --------------                             --------------
         LAND SURFACE =        4443556.20           LAND SURFACE =         -57717.89
            SOIL ZONE =        2518279.09              SOIL ZONE =         -36730.42
     UNSATURATED ZONE =        -811873.08       UNSATURATED ZONE =           3148.67
       SATURATED ZONE =        -721306.64         SATURATED ZONE =          -1080.48

 OVERALL BUDGET ERROR =          -2450.73           BUDGET ERROR =              9.78


  PERCENT DISCREPANCY =             -0.02    PERCENT DISCREPANCY =              0.01



1
 SUMMARY VOLUMETRIC BUDGET FOR GSFLOW 
 DATE: 04 07 1981              CUMULATIVE TIME STEP:     189
 MODFLOW STRESS PERIOD      2     CURRENT TIME STEP:     189     ITERATIONS:       7

 -----------------------------------------------------------------------------------

   CUMULATIVE VOLUMES               L**3   RATES FOR THIS TIME STEP           L**3/T
   ------------------                      ------------------------

                                     IN                                         IN
                                     --                                         --
        PRECIPITATION =        1.6121D+07          PRECIPITATION =                  
           STREAMFLOW =                               STREAMFLOW =                  
     GW BOUNDARY FLOW =                         GW BOUNDARY FLOW =                  


                                    OUT                                        OUT
                                    ---                                        ---
   EVAPOTRANSPIRATION =        6392532.86     EVAPOTRANSPIRATION =         106275.37
           STREAMFLOW =        4797027.42             STREAMFLOW =          44920.39
     GW BOUNDARY FLOW =         137342.37       GW BOUNDARY FLOW =            730.66

   INFLOWS - OUTFLOWS =        4794564.96     INFLOWS - OUTFLOWS =        -151926.42
             --------                                   --------

 TOTAL STORAGE CHANGE =        4796944.80         STORAGE CHANGE =        -151938.87
       --------------                             --------------
         LAND SURFACE =        3781661.77           LAND SURFACE =        -144703.25
            SOIL ZONE =        2465791.01              SOIL ZONE =         -19386.37
     UNSATURATED ZONE =        -731262.69       UNSATURATED ZONE =          12070.52
       SATURATED ZONE =        -719245.30         SATURATED ZONE =             80.23

 OVERALL BUDGET ERROR =          -2379.84           BUDGET ERROR =             12.45


  PERCENT DISCREPANCY =             -0.01    PERCENT DISCREPANCY =              0.01



1
 SUMMARY VOLUMETRIC BUDGET FOR GSFLOW 
 DATE: 04 14 1981              CUMULATIVE TIME STEP:     196
 MODFLOW STRESS PERIOD      2     CURRENT TIME STEP:     196     ITERATIONS:      10

 -----------------------------------------------------------------------------------

   CUMULATIVE VOLUMES               L**3   RATES FOR THIS TIME STEP           L**3/T
   ------------------                      ------------------------

                                     IN                                         IN
                                     --                                         --
        PRECIPITATION =        1.6121D+07          PRECIPITATION =                  
           STREAMFLOW =                               STREAMFLOW =                  
     GW BOUNDARY FLOW =                         GW BOUNDARY FLOW =                  


                                    OUT                                        OUT
                                    ---                                        ---
   EVAPOTRANSPIRATION =        7319568.25     EVAPOTRANSPIRATION =         190847.38
           STREAMFLOW =        5120664.89             STREAMFLOW =          53368.86
     GW BOUNDARY FLOW =         142454.31       GW BOUNDARY FLOW =            730.10

   INFLOWS - OUTFLOWS =        3538780.17     INFLOWS - OUTFLOWS =        -244946.35
             --------                                   --------

 TOTAL STORAGE CHANGE =        3541063.74         STORAGE CHANGE =        -244960.56
       --------------                             --------------
         LAND SURFACE =        2531238.32           LAND SURFACE =        -247996.93
            SOIL ZONE =        2363618.12              SOIL ZONE =         -17265.46
     UNSATURATED ZONE =        -639401.22       UNSATURATED ZONE =          18605.68
       SATURATED ZONE =        -714391.48         SATURATED ZONE =           1696.15

 OVERALL BUDGET ERROR =          -2283.57           BUDGET ERROR =             14.21


  PERCENT DISCREPANCY =             -0.01    PERCENT DISCREPANCY =              0.01



1
 SUMMARY VOLUMETRIC BUDGET FOR GSFLOW 
 DATE: 04 21 1981              CUMULATIVE TIME STEP:     203
 MODFLOW STRESS PERIOD      2     CURRENT TIME STEP:     203     ITERATIONS:       9

 -----------------------------------------------------------------------------------

   CUMULATIVE VOLUMES               L**3   RATES FOR THIS TIME STEP           L**3/T
   ------------------                      ------------------------

                                     IN                                         IN
                                     --                                         --
        PRECIPITATION =        1.6310D+07          PRECIPITATION =                  
           STREAMFLOW =                               STREAMFLOW =                  
     GW BOUNDARY FLOW =                         GW BOUNDARY FLOW =                  


                                    OUT                                        OUT
                                    ---                                        ---
   EVAPOTRANSPIRATION =        8385929.30     EVAPOTRANSPIRATION =         152878.72
           STREAMFLOW =        5444225.93             STREAMFLOW =          42373.19
     GW BOUNDARY FLOW =         147559.42       GW BOUNDARY FLOW =            728.72

   INFLOWS - OUTFLOWS =        2332528.00     INFLOWS - OUTFLOWS =        -195980.63
             --------                                   --------

 TOTAL STORAGE CHANGE =        2334684.44         STORAGE CHANGE =        -195999.11
       --------------                             --------------
         LAND SURFACE =        1376755.82           LAND SURFACE =        -115550.25
            SOIL ZONE =        2188389.13              SOIL ZONE =         -96689.11
     UNSATURATED ZONE =        -531056.32       UNSATURATED ZONE =          14069.59
       SATURATED ZONE =        -699404.19         SATURATED ZONE =           2170.66

 OVERALL BUDGET ERROR =          -2156.44           BUDGET ERROR =             18.48


  PERCENT DISCREPANCY =             -0.01    PERCENT DISCREPANCY =              0.01



1
 SUMMARY VOLUMETRIC BUDGET FOR GSFLOW 
 DATE: 04 28 1981              CUMULATIVE TIME STEP:     210
 MODFLOW STRESS PERIOD      2     CURRENT TIME STEP:     210     ITERATIONS:       9

 -----------------------------------------------------------------------------------

   CUMULATIVE VOLUMES               L**3   RATES FOR THIS TIME STEP           L**3/T
   ------------------                      ------------------------

                                     IN                                         IN
                                     --                                         --
        PRECIPITATION =        1.6515D+07          PRECIPITATION =                  
           STREAMFLOW =                               STREAMFLOW =                  
     GW BOUNDARY FLOW =                         GW BOUNDARY FLOW =                  


                                    OUT                                        OUT
                                    ---                                        ---
   EVAPOTRANSPIRATION =        9624163.68     EVAPOTRANSPIRATION =         200591.14
           STREAMFLOW =        5635090.02             STREAMFLOW =          20970.19
     GW BOUNDARY FLOW =         152649.02       GW BOUNDARY FLOW =            725.92

   INFLOWS - OUTFLOWS =        1103530.18     INFLOWS - OUTFLOWS =        -222287.25
             --------                                   --------

 TOTAL STORAGE CHANGE =        1105577.45         STORAGE CHANGE =        -222298.43
       --------------                             --------------
         LAND SURFACE =         689501.81           LAND SURFACE =         -76793.21
            SOIL ZONE =        1660692.36              SOIL ZONE =        -137324.78
     UNSATURATED ZONE =        -544483.63       UNSATURATED ZONE =          -7138.89
       SATURATED ZONE =        -700133.08         SATURATED ZONE =          -1041.54

 OVERALL BUDGET ERROR =          -2047.28           BUDGET ERROR =             11.18


  PERCENT DISCREPANCY =             -0.01    PERCENT DISCREPANCY =              0.01



1
 SUMMARY VOLUMETRIC BUDGET FOR GSFLOW 
 DATE: 05 05 1981              CUMULATIVE TIME STEP:     217
 MODFLOW STRESS PERIOD      2     CURRENT TIME STEP:     217     ITERATIONS:       9

 -----------------------------------------------------------------------------------

   CUMULATIVE VOLUMES               L**3   RATES FOR THIS TIME STEP           L**3/T
   ------------------                      ------------------------

                                     IN                                         IN
                                     --                                         --
        PRECIPITATION =        1.6515D+07          PRECIPITATION =                  
           STREAMFLOW =                               STREAMFLOW =                  
     GW BOUNDARY FLOW =                         GW BOUNDARY FLOW =                  


                                    OUT                                        OUT
                                    ---                                        ---
   EVAPOTRANSPIRATION =        1.0476D+07     EVAPOTRANSPIRATION =          52288.06
           STREAMFLOW =        5727778.48             STREAMFLOW =           9901.68
     GW BOUNDARY FLOW =         157722.27       GW BOUNDARY FLOW =            723.98

   INFLOWS - OUTFLOWS =         153816.05     INFLOWS - OUTFLOWS =         -62913.71
             --------                                   --------

 TOTAL STORAGE CHANGE =         155861.02         STORAGE CHANGE =         -62911.97
       --------------                             --------------
         LAND SURFACE =         366553.28           LAND SURFACE =         -17169.35
            SOIL ZONE =        1149326.15              SOIL ZONE =         -26547.28
     UNSATURATED ZONE =        -639711.12       UNSATURATED ZONE =         -15443.61
       SATURATED ZONE =        -720307.28         SATURATED ZONE =          -3751.72

 OVERALL BUDGET ERROR =          -2044.98           BUDGET ERROR =             -1.74


  PERCENT DISCREPANCY =             -0.01    PERCENT DISCREPANCY =             -0.00



1
 SUMMARY VOLUMETRIC BUDGET FOR GSFLOW 
 DATE: 05 12 1981              CUMULATIVE TIME STEP:     224
 MODFLOW STRESS PERIOD      2     CURRENT TIME STEP:     224     ITERATIONS:      10

 -----------------------------------------------------------------------------------

   CUMULATIVE VOLUMES               L**3   RATES FOR THIS TIME STEP           L**3/T
   ------------------                      ------------------------

                                     IN                                         IN
                                     --                                         --
        PRECIPITATION =        1.6515D+07          PRECIPITATION =                  
           STREAMFLOW =                               STREAMFLOW =                  
     GW BOUNDARY FLOW =                         GW BOUNDARY FLOW =                  


                                    OUT                                        OUT
                                    ---                                        ---
   EVAPOTRANSPIRATION =        1.0948D+07     EVAPOTRANSPIRATION =          83466.87
           STREAMFLOW =        5795156.87             STREAMFLOW =          10243.95
     GW BOUNDARY FLOW =         162787.08       GW BOUNDARY FLOW =            723.43

   INFLOWS - OUTFLOWS =        -391003.76     INFLOWS - OUTFLOWS =         -94434.25
             --------                                   --------

 TOTAL STORAGE CHANGE =        -388918.76         STORAGE CHANGE =         -94429.11
       --------------                             --------------
         LAND SURFACE =         219802.40           LAND SURFACE =         -26008.33
            SOIL ZONE =         886182.12              SOIL ZONE =         -49881.38
     UNSATURATED ZONE =        -740027.44       UNSATURATED ZONE =         -12723.87
       SATURATED ZONE =        -754875.84         SATURATED ZONE =          -5815.54

 OVERALL BUDGET ERROR =          -2085.00           BUDGET ERROR =             -5.14


  PERCENT DISCREPANCY =             -0.01    PERCENT DISCREPANCY =             -0.01



1
 SUMMARY VOLUMETRIC BUDGET FOR GSFLOW 
 DATE: 05 19 1981              CUMULATIVE TIME STEP:     231
 MODFLOW STRESS PERIOD      2     CURRENT TIME STEP:     231     ITERATIONS:      12

 -----------------------------------------------------------------------------------

   CUMULATIVE VOLUMES               L**3   RATES FOR THIS TIME STEP           L**3/T
   ------------------                      ------------------------

                                     IN                                         IN
                                     --                                         --
        PRECIPITATION =        1.7837D+07          PRECIPITATION =         169045.42
           STREAMFLOW =                               STREAMFLOW =                  
     GW BOUNDARY FLOW =                         GW BOUNDARY FLOW =                  


                                    OUT                                        OUT
                                    ---                                        ---
   EVAPOTRANSPIRATION =        1.1328D+07     EVAPOTRANSPIRATION =          31098.89
           STREAMFLOW =        5915896.36             STREAMFLOW =          22460.06
     GW BOUNDARY FLOW =         167853.89       GW BOUNDARY FLOW =            725.02

   INFLOWS - OUTFLOWS =         425082.92     INFLOWS - OUTFLOWS =         114761.45
             --------                                   --------

 TOTAL STORAGE CHANGE =         427138.67         STORAGE CHANGE =         114752.61
       --------------                             --------------
         LAND SURFACE =         192797.30           LAND SURFACE =          20924.34
            SOIL ZONE =        1834398.25              SOIL ZONE =         101395.90
     UNSATURATED ZONE =        -802048.87       UNSATURATED ZONE =          -1097.03
       SATURATED ZONE =        -798008.01         SATURATED ZONE =          -6470.60

 OVERALL BUDGET ERROR =          -2055.75           BUDGET ERROR =              8.84


  PERCENT DISCREPANCY =             -0.01    PERCENT DISCREPANCY =              0.01



1
 SUMMARY VOLUMETRIC BUDGET FOR GSFLOW 
 DATE: 05 26 1981              CUMULATIVE TIME STEP:     238
 MODFLOW STRESS PERIOD      2     CURRENT TIME STEP:     238     ITERATIONS:      10

 -----------------------------------------------------------------------------------

   CUMULATIVE VOLUMES               L**3   RATES FOR THIS TIME STEP           L**3/T
   ------------------                      ------------------------

                                     IN                                         IN
                                     --                                         --
        PRECIPITATION =        1.8252D+07          PRECIPITATION =         284303.67
           STREAMFLOW =                               STREAMFLOW =                  
     GW BOUNDARY FLOW =                         GW BOUNDARY FLOW =                  


                                    OUT                                        OUT
                                    ---                                        ---
   EVAPOTRANSPIRATION =        1.2174D+07     EVAPOTRANSPIRATION =         134158.24
           STREAMFLOW =        6020310.56             STREAMFLOW =          18615.58
     GW BOUNDARY FLOW =         172922.66       GW BOUNDARY FLOW =            723.91

   INFLOWS - OUTFLOWS =        -115405.46     INFLOWS - OUTFLOWS =         130805.95
             --------                                   --------

 TOTAL STORAGE CHANGE =        -113342.03         STORAGE CHANGE =         130808.29
       --------------                             --------------
         LAND SURFACE =         117351.16           LAND SURFACE =          -7156.34
            SOIL ZONE =        1479612.71              SOIL ZONE =         155502.27
     UNSATURATED ZONE =        -862505.72       UNSATURATED ZONE =         -10460.52
       SATURATED ZONE =        -847800.19         SATURATED ZONE =          -7077.12

 OVERALL BUDGET ERROR =          -2063.43           BUDGET ERROR =             -2.34


  PERCENT DISCREPANCY =             -0.01    PERCENT DISCREPANCY =             -0.00



1
 SUMMARY VOLUMETRIC BUDGET FOR GSFLOW 
 DATE: 06 02 1981              CUMULATIVE TIME STEP:     245
 MODFLOW STRESS PERIOD      2     CURRENT TIME STEP:     245     ITERATIONS:       8

 -----------------------------------------------------------------------------------

   CUMULATIVE VOLUMES               L**3   RATES FOR THIS TIME STEP           L**3/T
   ------------------                      ------------------------

                                     IN                                         IN
                                     --                                         --
        PRECIPITATION =        1.8318D+07          PRECIPITATION =          50869.96
           STREAMFLOW =                               STREAMFLOW =                  
     GW BOUNDARY FLOW =                         GW BOUNDARY FLOW =                  


                                    OUT                                        OUT
                                    ---                                        ---
   EVAPOTRANSPIRATION =        1.2958D+07     EVAPOTRANSPIRATION =          79146.46
           STREAMFLOW =        6089609.11             STREAMFLOW =           7791.95
     GW BOUNDARY FLOW =         177985.07       GW BOUNDARY FLOW =            722.68

   INFLOWS - OUTFLOWS =        -907498.98     INFLOWS - OUTFLOWS =         -36791.13
             --------                                   --------

 TOTAL STORAGE CHANGE =        -905393.16         STORAGE CHANGE =         -36782.90
       --------------                             --------------
         LAND SURFACE =          73938.95           LAND SURFACE =          28862.99
            SOIL ZONE =         871817.34              SOIL ZONE =         -44515.59
     UNSATURATED ZONE =        -944829.76       UNSATURATED ZONE =         -12404.32
       SATURATED ZONE =        -906319.69         SATURATED ZONE =          -8725.98

 OVERALL BUDGET ERROR =          -2105.83           BUDGET ERROR =             -8.23


  PERCENT DISCREPANCY =             -0.01    PERCENT DISCREPANCY =             -0.01



1
 SUMMARY VOLUMETRIC BUDGET FOR GSFLOW 
 DATE: 06 09 1981              CUMULATIVE TIME STEP:     252
 MODFLOW STRESS PERIOD      2     CURRENT TIME STEP:     252     ITERATIONS:      10

 -----------------------------------------------------------------------------------

   CUMULATIVE VOLUMES               L**3   RATES FOR THIS TIME STEP           L**3/T
   ------------------                      ------------------------

                                     IN                                         IN
                                     --                                         --
        PRECIPITATION =        1.8318D+07          PRECIPITATION =                  
           STREAMFLOW =                               STREAMFLOW =                  
     GW BOUNDARY FLOW =                         GW BOUNDARY FLOW =                  


                                    OUT                                        OUT
                                    ---                                        ---
   EVAPOTRANSPIRATION =        1.3448D+07     EVAPOTRANSPIRATION =          54033.25
           STREAMFLOW =        6137221.87             STREAMFLOW =           6389.23
     GW BOUNDARY FLOW =         183041.25       GW BOUNDARY FLOW =            722.11

   INFLOWS - OUTFLOWS =       -1450427.66     INFLOWS - OUTFLOWS =         -61144.59
             --------                                   --------

 TOTAL STORAGE CHANGE =       -1448260.07         STORAGE CHANGE =         -61137.71
       --------------                             --------------
         LAND SURFACE =          12533.08           LAND SURFACE =          -2883.46
            SOIL ZONE =         543838.46              SOIL ZONE =         -36125.33
     UNSATURATED ZONE =       -1034700.54       UNSATURATED ZONE =         -12824.44
       SATURATED ZONE =        -969931.07         SATURATED ZONE =          -9304.49

 OVERALL BUDGET ERROR =          -2167.59           BUDGET ERROR =             -6.88


  PERCENT DISCREPANCY =             -0.01    PERCENT DISCREPANCY =             -0.01



1
 SUMMARY VOLUMETRIC BUDGET FOR GSFLOW 
 DATE: 06 16 1981              CUMULATIVE TIME STEP:     259
 MODFLOW STRESS PERIOD      2     CURRENT TIME STEP:     259     ITERATIONS:       9

 -----------------------------------------------------------------------------------

   CUMULATIVE VOLUMES               L**3   RATES FOR THIS TIME STEP           L**3/T
   ------------------                      ------------------------

                                     IN                                         IN
                                     --                                         --
        PRECIPITATION =        1.8318D+07          PRECIPITATION =                  
           STREAMFLOW =                               STREAMFLOW =                  
     GW BOUNDARY FLOW =                         GW BOUNDARY FLOW =                  


                                    OUT                                        OUT
                                    ---                                        ---
   EVAPOTRANSPIRATION =        1.3641D+07     EVAPOTRANSPIRATION =          44853.01
           STREAMFLOW =        6180438.56             STREAMFLOW =           6105.46
     GW BOUNDARY FLOW =         188094.96       GW BOUNDARY FLOW =            721.87

   INFLOWS - OUTFLOWS =       -1691194.61     INFLOWS - OUTFLOWS =         -51680.34
             --------                                   --------

 TOTAL STORAGE CHANGE =       -1688974.88         STORAGE CHANGE =         -51672.39
       --------------                             --------------
         LAND SURFACE =           5661.89           LAND SURFACE =          -1250.65
            SOIL ZONE =         463668.82              SOIL ZONE =         -28602.86
     UNSATURATED ZONE =       -1122291.16       UNSATURATED ZONE =         -12309.36
       SATURATED ZONE =       -1036014.43         SATURATED ZONE =          -9509.52

 OVERALL BUDGET ERROR =          -2219.73           BUDGET ERROR =             -7.94


  PERCENT DISCREPANCY =             -0.01    PERCENT DISCREPANCY =             -0.02



1
 SUMMARY VOLUMETRIC BUDGET FOR GSFLOW 
 DATE: 06 23 1981              CUMULATIVE TIME STEP:     266
 MODFLOW STRESS PERIOD      2     CURRENT TIME STEP:     266     ITERATIONS:      10

 -----------------------------------------------------------------------------------

   CUMULATIVE VOLUMES               L**3   RATES FOR THIS TIME STEP           L**3/T
   ------------------                      ------------------------

                                     IN                                         IN
                                     --                                         --
        PRECIPITATION =        1.8318D+07          PRECIPITATION =                  
           STREAMFLOW =                               STREAMFLOW =                  
     GW BOUNDARY FLOW =                         GW BOUNDARY FLOW =                  


                                    OUT                                        OUT
                                    ---                                        ---
   EVAPOTRANSPIRATION =        1.3930D+07     EVAPOTRANSPIRATION =          32321.73
           STREAMFLOW =        6222333.15             STREAMFLOW =           5919.02
     GW BOUNDARY FLOW =         193150.85       GW BOUNDARY FLOW =            722.70

   INFLOWS - OUTFLOWS =       -2026877.06     INFLOWS - OUTFLOWS =         -38963.45
             --------                                   --------

 TOTAL STORAGE CHANGE =       -2024597.86         STORAGE CHANGE =         -38955.90
       --------------                             --------------
         LAND SURFACE =        2.9104D-11           LAND SURFACE =                  
            SOIL ZONE =         285286.84              SOIL ZONE =         -17420.91
     UNSATURATED ZONE =       -1203773.29       UNSATURATED ZONE =         -11429.27
       SATURATED ZONE =       -1106111.41         SATURATED ZONE =         -10105.73

 OVERALL BUDGET ERROR =          -2279.20           BUDGET ERROR =             -7.54


  PERCENT DISCREPANCY =             -0.01    PERCENT DISCREPANCY =             -0.02



1
 SUMMARY VOLUMETRIC BUDGET FOR GSFLOW 
 DATE: 06 30 1981              CUMULATIVE TIME STEP:     273
 MODFLOW STRESS PERIOD      2     CURRENT TIME STEP:     273     ITERATIONS:       8

 -----------------------------------------------------------------------------------

   CUMULATIVE VOLUMES               L**3   RATES FOR THIS TIME STEP           L**3/T
   ------------------                      ------------------------

                                     IN                                         IN
[...]
                                    ---                                        ---
   EVAPOTRANSPIRATION =        2.8709D+08     EVAPOTRANSPIRATION =          38149.51
           STREAMFLOW =        1.8158D+08             STREAMFLOW =           7029.08
     GW BOUNDARY FLOW =        4178518.83       GW BOUNDARY FLOW =            726.34

   INFLOWS - OUTFLOWS =       -7793708.71     INFLOWS - OUTFLOWS =         -45904.93
             --------                                   --------

 TOTAL STORAGE CHANGE =       -7800801.50         STORAGE CHANGE =         -45902.05
       --------------                             --------------
         LAND SURFACE =           3413.21           LAND SURFACE =           -684.23
            SOIL ZONE =         249541.58              SOIL ZONE =         -23574.62
     UNSATURATED ZONE =        5333696.89       UNSATURATED ZONE =         -27818.56
       SATURATED ZONE =       -1.3387D+07         SATURATED ZONE =           6175.35

 OVERALL BUDGET ERROR =           7092.79           BUDGET ERROR =             -2.88


  PERCENT DISCREPANCY =              0.00    PERCENT DISCREPANCY =             -0.01



1
 SUMMARY VOLUMETRIC BUDGET FOR GSFLOW 
 DATE: 07 30 1996              CUMULATIVE TIME STEP:    5782
 MODFLOW STRESS PERIOD      2     CURRENT TIME STEP:    5782     ITERATIONS:      10

 -----------------------------------------------------------------------------------

   CUMULATIVE VOLUMES               L**3   RATES FOR THIS TIME STEP           L**3/T
   ------------------                      ------------------------

                                     IN                                         IN
                                     --                                         --
        PRECIPITATION =        4.6511D+08          PRECIPITATION =                  
           STREAMFLOW =                               STREAMFLOW =                  
     GW BOUNDARY FLOW =                         GW BOUNDARY FLOW =                  


                                    OUT                                        OUT
                                    ---                                        ---
   EVAPOTRANSPIRATION =        2.8732D+08     EVAPOTRANSPIRATION =          23502.09
           STREAMFLOW =        1.8163D+08             STREAMFLOW =           6853.18
     GW BOUNDARY FLOW =        4183601.00       GW BOUNDARY FLOW =            725.87

   INFLOWS - OUTFLOWS =       -8019390.56     INFLOWS - OUTFLOWS =         -31081.13
             --------                                   --------

 TOTAL STORAGE CHANGE =       -8026447.06         STORAGE CHANGE =         -31077.38
       --------------                             --------------
         LAND SURFACE =            303.92           LAND SURFACE =           -298.55
            SOIL ZONE =         177007.16              SOIL ZONE =          -9494.89
     UNSATURATED ZONE =        5143373.21       UNSATURATED ZONE =         -27126.81
       SATURATED ZONE =       -1.3347D+07         SATURATED ZONE =           5842.87

 OVERALL BUDGET ERROR =           7056.50           BUDGET ERROR =             -3.76


  PERCENT DISCREPANCY =              0.00    PERCENT DISCREPANCY =             -0.01



1
 SUMMARY VOLUMETRIC BUDGET FOR GSFLOW 
 DATE: 08 06 1996              CUMULATIVE TIME STEP:    5789
 MODFLOW STRESS PERIOD      2     CURRENT TIME STEP:    5789     ITERATIONS:      10

 -----------------------------------------------------------------------------------

   CUMULATIVE VOLUMES               L**3   RATES FOR THIS TIME STEP           L**3/T
   ------------------                      ------------------------

                                     IN                                         IN
                                     --                                         --
        PRECIPITATION =        4.6511D+08          PRECIPITATION =                  
           STREAMFLOW =                               STREAMFLOW =                  
     GW BOUNDARY FLOW =                         GW BOUNDARY FLOW =                  


                                    OUT                                        OUT
                                    ---                                        ---
   EVAPOTRANSPIRATION =        2.8744D+08     EVAPOTRANSPIRATION =          16239.45
           STREAMFLOW =        1.8168D+08             STREAMFLOW =           6645.08
     GW BOUNDARY FLOW =        4188681.48       GW BOUNDARY FLOW =            725.71

   INFLOWS - OUTFLOWS =       -8199213.34     INFLOWS - OUTFLOWS =         -23610.24
             --------                                   --------

 TOTAL STORAGE CHANGE =       -8206231.29         STORAGE CHANGE =         -23603.77
       --------------                             --------------
         LAND SURFACE =        2.3783D-08           LAND SURFACE =                  
            SOIL ZONE =         145211.99              SOIL ZONE =          -2641.70
     UNSATURATED ZONE =        4959015.22       UNSATURATED ZONE =         -25737.41
       SATURATED ZONE =       -1.3310D+07         SATURATED ZONE =           4775.34

 OVERALL BUDGET ERROR =           7017.95           BUDGET ERROR =             -6.46


  PERCENT DISCREPANCY =              0.00    PERCENT DISCREPANCY =             -0.03



1
 SUMMARY VOLUMETRIC BUDGET FOR GSFLOW 
 DATE: 08 13 1996              CUMULATIVE TIME STEP:    5796
 MODFLOW STRESS PERIOD      2     CURRENT TIME STEP:    5796     ITERATIONS:      10

 -----------------------------------------------------------------------------------

   CUMULATIVE VOLUMES               L**3   RATES FOR THIS TIME STEP           L**3/T
   ------------------                      ------------------------

                                     IN                                         IN
                                     --                                         --
        PRECIPITATION =        4.6531D+08          PRECIPITATION =          54454.08
           STREAMFLOW =                               STREAMFLOW =                  
     GW BOUNDARY FLOW =                         GW BOUNDARY FLOW =                  


                                    OUT                                        OUT
                                    ---                                        ---
   EVAPOTRANSPIRATION =        2.8760D+08     EVAPOTRANSPIRATION =          30839.15
           STREAMFLOW =        1.8173D+08             STREAMFLOW =           7817.84
     GW BOUNDARY FLOW =        4193760.66       GW BOUNDARY FLOW =            725.60

   INFLOWS - OUTFLOWS =       -8206775.58     INFLOWS - OUTFLOWS =          15071.48
             --------                                   --------

 TOTAL STORAGE CHANGE =       -8213755.00         STORAGE CHANGE =          15075.15
       --------------                             --------------
         LAND SURFACE =          34505.06           LAND SURFACE =                  
            SOIL ZONE =         248389.19              SOIL ZONE =          35621.90
     UNSATURATED ZONE =        4783681.33       UNSATURATED ZONE =         -24588.64
       SATURATED ZONE =       -1.3280D+07         SATURATED ZONE =           4041.89

 OVERALL BUDGET ERROR =           6979.42           BUDGET ERROR =             -3.68


  PERCENT DISCREPANCY =              0.00    PERCENT DISCREPANCY =             -0.01



1
 SUMMARY VOLUMETRIC BUDGET FOR GSFLOW 
 DATE: 08 20 1996              CUMULATIVE TIME STEP:    5803
 MODFLOW STRESS PERIOD      2     CURRENT TIME STEP:    5803     ITERATIONS:      10

 -----------------------------------------------------------------------------------

   CUMULATIVE VOLUMES               L**3   RATES FOR THIS TIME STEP           L**3/T
   ------------------                      ------------------------

                                     IN                                         IN
                                     --                                         --
        PRECIPITATION =        4.6531D+08          PRECIPITATION =                  
           STREAMFLOW =                               STREAMFLOW =                  
     GW BOUNDARY FLOW =                         GW BOUNDARY FLOW =                  


                                    OUT                                        OUT
                                    ---                                        ---
   EVAPOTRANSPIRATION =        2.8779D+08     EVAPOTRANSPIRATION =          16910.38
           STREAMFLOW =        1.8177D+08             STREAMFLOW =           6442.17
     GW BOUNDARY FLOW =        4198837.83       GW BOUNDARY FLOW =            725.10

   INFLOWS - OUTFLOWS =       -8446530.32     INFLOWS - OUTFLOWS =         -24077.65
             --------                                   --------

 TOTAL STORAGE CHANGE =       -8453479.21         STORAGE CHANGE =         -24075.65
       --------------                             --------------
         LAND SURFACE =        2.3785D-08           LAND SURFACE =                  
            SOIL ZONE =         186824.57              SOIL ZONE =          -3663.63
     UNSATURATED ZONE =        4616806.05       UNSATURATED ZONE =         -23174.54
       SATURATED ZONE =       -1.3257D+07         SATURATED ZONE =           2762.51

 OVERALL BUDGET ERROR =           6948.89           BUDGET ERROR =             -2.00


  PERCENT DISCREPANCY =              0.00    PERCENT DISCREPANCY =             -0.01



1
 SUMMARY VOLUMETRIC BUDGET FOR GSFLOW 
 DATE: 08 27 1996              CUMULATIVE TIME STEP:    5810
 MODFLOW STRESS PERIOD      2     CURRENT TIME STEP:    5810     ITERATIONS:      10

 -----------------------------------------------------------------------------------

   CUMULATIVE VOLUMES               L**3   RATES FOR THIS TIME STEP           L**3/T
   ------------------                      ------------------------

                                     IN                                         IN
                                     --                                         --
        PRECIPITATION =        4.6531D+08          PRECIPITATION =                  
           STREAMFLOW =                               STREAMFLOW =                  
     GW BOUNDARY FLOW =                         GW BOUNDARY FLOW =                  


                                    OUT                                        OUT
                                    ---                                        ---
   EVAPOTRANSPIRATION =        2.8792D+08     EVAPOTRANSPIRATION =          15040.28
           STREAMFLOW =        1.8182D+08             STREAMFLOW =           6286.47
     GW BOUNDARY FLOW =        4203911.69       GW BOUNDARY FLOW =            724.66

   INFLOWS - OUTFLOWS =       -8629386.95     INFLOWS - OUTFLOWS =         -22051.41
             --------                                   --------

 TOTAL STORAGE CHANGE =       -8636308.92         STORAGE CHANGE =         -22045.62
       --------------                             --------------
         LAND SURFACE =        2.3785D-08           LAND SURFACE =                  
            SOIL ZONE =         145833.68              SOIL ZONE =          -1891.98
     UNSATURATED ZONE =        4456047.70       UNSATURATED ZONE =         -22681.46
       SATURATED ZONE =       -1.3238D+07         SATURATED ZONE =           2527.82

 OVERALL BUDGET ERROR =           6921.97           BUDGET ERROR =             -5.80


  PERCENT DISCREPANCY =              0.00    PERCENT DISCREPANCY =             -0.03



1
 SUMMARY VOLUMETRIC BUDGET FOR GSFLOW 
 DATE: 09 03 1996              CUMULATIVE TIME STEP:    5817
 MODFLOW STRESS PERIOD      2     CURRENT TIME STEP:    5817     ITERATIONS:      10

 -----------------------------------------------------------------------------------

   CUMULATIVE VOLUMES               L**3   RATES FOR THIS TIME STEP           L**3/T
   ------------------                      ------------------------

                                     IN                                         IN
                                     --                                         --
        PRECIPITATION =        4.6531D+08          PRECIPITATION =                  
           STREAMFLOW =                               STREAMFLOW =                  
     GW BOUNDARY FLOW =                         GW BOUNDARY FLOW =                  


                                    OUT                                        OUT
                                    ---                                        ---
   EVAPOTRANSPIRATION =        2.8803D+08     EVAPOTRANSPIRATION =          13650.66
           STREAMFLOW =        1.8186D+08             STREAMFLOW =           6179.71
     GW BOUNDARY FLOW =        4208982.53       GW BOUNDARY FLOW =            724.24

   INFLOWS - OUTFLOWS =       -8783328.95     INFLOWS - OUTFLOWS =         -20554.60
             --------                                   --------

 TOTAL STORAGE CHANGE =       -8790231.81         STORAGE CHANGE =         -20548.15
       --------------                             --------------
         LAND SURFACE =        2.3785D-08           LAND SURFACE =                  
            SOIL ZONE =         132032.04              SOIL ZONE =           -635.69
     UNSATURATED ZONE =        4301774.48       UNSATURATED ZONE =         -21927.24
       SATURATED ZONE =       -1.3224D+07         SATURATED ZONE =           2014.78

 OVERALL BUDGET ERROR =           6902.86           BUDGET ERROR =             -6.45


  PERCENT DISCREPANCY =              0.00    PERCENT DISCREPANCY =             -0.03



1
 SUMMARY VOLUMETRIC BUDGET FOR GSFLOW 
 DATE: 09 10 1996              CUMULATIVE TIME STEP:    5824
 MODFLOW STRESS PERIOD      2     CURRENT TIME STEP:    5824     ITERATIONS:       9

 -----------------------------------------------------------------------------------

   CUMULATIVE VOLUMES               L**3   RATES FOR THIS TIME STEP           L**3/T
   ------------------                      ------------------------

                                     IN                                         IN
                                     --                                         --
        PRECIPITATION =        4.6531D+08          PRECIPITATION =                  
           STREAMFLOW =                               STREAMFLOW =                  
     GW BOUNDARY FLOW =                         GW BOUNDARY FLOW =                  


                                    OUT                                        OUT
                                    ---                                        ---
   EVAPOTRANSPIRATION =        2.8811D+08     EVAPOTRANSPIRATION =          13318.99
           STREAMFLOW =        1.8190D+08             STREAMFLOW =           6082.69
     GW BOUNDARY FLOW =        4214050.59       GW BOUNDARY FLOW =            723.84

   INFLOWS - OUTFLOWS =       -8916631.41     INFLOWS - OUTFLOWS =         -20125.53
             --------                                   --------

 TOTAL STORAGE CHANGE =       -8923513.62         STORAGE CHANGE =         -20121.78
       --------------                             --------------
         LAND SURFACE =        2.3785D-08           LAND SURFACE =                  
            SOIL ZONE =         137232.73              SOIL ZONE =           -435.30
     UNSATURATED ZONE =        4152492.52       UNSATURATED ZONE =         -20837.42
       SATURATED ZONE =       -1.3213D+07         SATURATED ZONE =           1150.94

 OVERALL BUDGET ERROR =           6882.20           BUDGET ERROR =             -3.75


  PERCENT DISCREPANCY =              0.00    PERCENT DISCREPANCY =             -0.02



1
 SUMMARY VOLUMETRIC BUDGET FOR GSFLOW 
 DATE: 09 17 1996              CUMULATIVE TIME STEP:    5831
 MODFLOW STRESS PERIOD      2     CURRENT TIME STEP:    5831     ITERATIONS:       9

 -----------------------------------------------------------------------------------

   CUMULATIVE VOLUMES               L**3   RATES FOR THIS TIME STEP           L**3/T
   ------------------                      ------------------------

                                     IN                                         IN
                                     --                                         --
        PRECIPITATION =        4.6637D+08          PRECIPITATION =                  
           STREAMFLOW =                               STREAMFLOW =                  
     GW BOUNDARY FLOW =                         GW BOUNDARY FLOW =                  


                                    OUT                                        OUT
                                    ---                                        ---
   EVAPOTRANSPIRATION =        2.8830D+08     EVAPOTRANSPIRATION =          67792.43
           STREAMFLOW =        1.8197D+08             STREAMFLOW =          10172.17
     GW BOUNDARY FLOW =        4219118.49       GW BOUNDARY FLOW =            724.45

   INFLOWS - OUTFLOWS =       -8123036.84     INFLOWS - OUTFLOWS =         -78689.05
             --------                                   --------

 TOTAL STORAGE CHANGE =       -8129930.89         STORAGE CHANGE =         -78689.75
       --------------                             --------------
         LAND SURFACE =        2.3785D-08           LAND SURFACE =         -34505.06
            SOIL ZONE =        1065540.43              SOIL ZONE =         -24716.20
     UNSATURATED ZONE =        4009645.18       UNSATURATED ZONE =         -20068.24
       SATURATED ZONE =       -1.3205D+07         SATURATED ZONE =            599.76

 OVERALL BUDGET ERROR =           6894.05           BUDGET ERROR =              0.69


  PERCENT DISCREPANCY =              0.00    PERCENT DISCREPANCY =              0.00



1
 SUMMARY VOLUMETRIC BUDGET FOR GSFLOW 
 DATE: 09 24 1996              CUMULATIVE TIME STEP:    5838
 MODFLOW STRESS PERIOD      2     CURRENT TIME STEP:    5838     ITERATIONS:       9

 -----------------------------------------------------------------------------------

   CUMULATIVE VOLUMES               L**3   RATES FOR THIS TIME STEP           L**3/T
   ------------------                      ------------------------

                                     IN                                         IN
                                     --                                         --
        PRECIPITATION =        4.6637D+08          PRECIPITATION =                  
           STREAMFLOW =                               STREAMFLOW =                  
     GW BOUNDARY FLOW =                         GW BOUNDARY FLOW =                  


                                    OUT                                        OUT
                                    ---                                        ---
   EVAPOTRANSPIRATION =        2.8881D+08     EVAPOTRANSPIRATION =          55404.25
           STREAMFLOW =        1.8202D+08             STREAMFLOW =           6593.45
     GW BOUNDARY FLOW =        4224184.90       GW BOUNDARY FLOW =            723.39

   INFLOWS - OUTFLOWS =       -8691691.13     INFLOWS - OUTFLOWS =         -62721.08
             --------                                   --------

 TOTAL STORAGE CHANGE =       -8698590.62         STORAGE CHANGE =         -62718.47
       --------------                             --------------
         LAND SURFACE =        2.3785D-08           LAND SURFACE =                  
            SOIL ZONE =         632527.41              SOIL ZONE =         -43437.39
     UNSATURATED ZONE =        3872908.38       UNSATURATED ZONE =         -19142.78
       SATURATED ZONE =       -1.3204D+07         SATURATED ZONE =           -138.30

 OVERALL BUDGET ERROR =           6899.49           BUDGET ERROR =             -2.61


  PERCENT DISCREPANCY =              0.00    PERCENT DISCREPANCY =             -0.00



