1
 SUMMARY VOLUMETRIC BUDGET FOR GSFLOW 
 DATE: 10 07 1980              CUMULATIVE TIME STEP:       7
 MODFLOW STRESS PERIOD      2     CURRENT TIME STEP:       7     ITERATIONS:       6

 -----------------------------------------------------------------------------------

   CUMULATIVE VOLUMES               L**3   RATES FOR THIS TIME STEP           L**3/T
   ------------------                      ------------------------

                                     IN                                         IN
                                     --                                         --
        PRECIPITATION =                            PRECIPITATION =                  
           STREAMFLOW =                               STREAMFLOW =                  
     GW BOUNDARY FLOW =                         GW BOUNDARY FLOW =                  
                WELLS =                                    WELLS =                  


                                    OUT                                        OUT
                                    ---                                        ---
   EVAPOTRANSPIRATION =          66593.95     EVAPOTRANSPIRATION =           9275.42
           STREAMFLOW =          42986.64             STREAMFLOW =           6070.45
     GW BOUNDARY FLOW =           4541.44       GW BOUNDARY FLOW =            648.70
                WELLS =                                    WELLS =                  

   INFLOWS - OUTFLOWS =        -114122.04     INFLOWS - OUTFLOWS =         -15994.58
             --------                                   --------

       STORAGE CHANGE =        -113591.56         STORAGE CHANGE =         -15912.53
       --------------                             --------------
         LAND SURFACE =                             LAND SURFACE =                  
            SOIL ZONE =          43921.54              SOIL ZONE =           6421.68
     UNSATURATED ZONE =        -144838.14       UNSATURATED ZONE =         -20370.29
       SATURATED ZONE =         -12674.95         SATURATED ZONE =          -1963.91

 OVERALL BUDGET ERROR =           -530.48   OVERALL BUDGET ERROR =            -82.05


  PERCENT DISCREPANCY =             -0.47    PERCENT DISCREPANCY =             -0.51



1
 SUMMARY VOLUMETRIC BUDGET FOR GSFLOW 
 DATE: 10 14 1980              CUMULATIVE TIME STEP:      14
 MODFLOW STRESS PERIOD      2     CURRENT TIME STEP:      14     ITERATIONS:       7

 -----------------------------------------------------------------------------------

   CUMULATIVE VOLUMES               L**3   RATES FOR THIS TIME STEP           L**3/T
   ------------------                      ------------------------

                                     IN                                         IN
                                     --                                         --
        PRECIPITATION =         650779.75          PRECIPITATION =         164754.38
           STREAMFLOW =                               STREAMFLOW =                  
     GW BOUNDARY FLOW =                         GW BOUNDARY FLOW =                  
                WELLS =                                    WELLS =                  


                                    OUT                                        OUT
                                    ---                                        ---
   EVAPOTRANSPIRATION =         160335.92     EVAPOTRANSPIRATION =          11375.00
           STREAMFLOW =          93176.16             STREAMFLOW =           8032.95
     GW BOUNDARY FLOW =           9082.82       GW BOUNDARY FLOW =            648.93
                WELLS =                                    WELLS =                  

   INFLOWS - OUTFLOWS =         388184.84     INFLOWS - OUTFLOWS =         144697.48
             --------                                   --------

       STORAGE CHANGE =         389293.38         STORAGE CHANGE =         144773.80
       --------------                             --------------
         LAND SURFACE =         186181.61           LAND SURFACE =         130607.26
            SOIL ZONE =         515016.47              SOIL ZONE =          36117.89
     UNSATURATED ZONE =        -284583.63       UNSATURATED ZONE =         -19641.44
       SATURATED ZONE =         -27321.10         SATURATED ZONE =          -2309.92

 OVERALL BUDGET ERROR =          -1108.53   OVERALL BUDGET ERROR =            -76.31


  PERCENT DISCREPANCY =             -0.17    PERCENT DISCREPANCY =             -0.05



1
 SUMMARY VOLUMETRIC BUDGET FOR GSFLOW 
 DATE: 10 21 1980              CUMULATIVE TIME STEP:      21
 MODFLOW STRESS PERIOD      2     CURRENT TIME STEP:      21     ITERATIONS:       6

 -----------------------------------------------------------------------------------

   CUMULATIVE VOLUMES               L**3   RATES FOR THIS TIME STEP           L**3/T
   ------------------                      ------------------------

                                     IN                                         IN
                                     --                                         --
        PRECIPITATION =         733156.94          PRECIPITATION =                  
           STREAMFLOW =                               STREAMFLOW =                  
     GW BOUNDARY FLOW =                         GW BOUNDARY FLOW =                  
                WELLS =                                    WELLS =                  


                                    OUT                                        OUT
                                    ---                                        ---
   EVAPOTRANSPIRATION =         429589.06     EVAPOTRANSPIRATION =          44210.33
           STREAMFLOW =         144694.23             STREAMFLOW =           6912.01
     GW BOUNDARY FLOW =          13624.60       GW BOUNDARY FLOW =            648.74
                WELLS =                                    WELLS =                  

   INFLOWS - OUTFLOWS =         145249.06     INFLOWS - OUTFLOWS =         -51771.08
             --------                                   --------

       STORAGE CHANGE =         146959.89         STORAGE CHANGE =         -51683.13
       --------------                             --------------
         LAND SURFACE =              0.01           LAND SURFACE =                  
            SOIL ZONE =         611887.38              SOIL ZONE =         -29852.77
     UNSATURATED ZONE =        -418871.06       UNSATURATED ZONE =         -18838.84
       SATURATED ZONE =         -46056.50         SATURATED ZONE =          -2991.52

 OVERALL BUDGET ERROR =          -1710.83   OVERALL BUDGET ERROR =            -87.95


  PERCENT DISCREPANCY =             -0.23    PERCENT DISCREPANCY =             -0.17



1
 SUMMARY VOLUMETRIC BUDGET FOR GSFLOW 
 DATE: 10 28 1980              CUMULATIVE TIME STEP:      28
 MODFLOW STRESS PERIOD      2     CURRENT TIME STEP:      28     ITERATIONS:       6

 -----------------------------------------------------------------------------------

   CUMULATIVE VOLUMES               L**3   RATES FOR THIS TIME STEP           L**3/T
   ------------------                      ------------------------

                                     IN                                         IN
                                     --                                         --
        PRECIPITATION =        1070903.38          PRECIPITATION =                  
           STREAMFLOW =                               STREAMFLOW =                  
     GW BOUNDARY FLOW =                         GW BOUNDARY FLOW =                  
                WELLS =                                    WELLS =                  


                                    OUT                                        OUT
                                    ---                                        ---
   EVAPOTRANSPIRATION =         616454.13     EVAPOTRANSPIRATION =          22835.19
           STREAMFLOW =         196863.64             STREAMFLOW =           7816.88
     GW BOUNDARY FLOW =          18165.58       GW BOUNDARY FLOW =            648.76
                WELLS =                                    WELLS =                  

   INFLOWS - OUTFLOWS =         239420.00     INFLOWS - OUTFLOWS =         -31300.84
             --------                                   --------

       STORAGE CHANGE =         241783.48         STORAGE CHANGE =         -31202.58
       --------------                             --------------
         LAND SURFACE =          33521.78           LAND SURFACE =         -25160.79
            SOIL ZONE =         824586.44              SOIL ZONE =          15438.00
     UNSATURATED ZONE =        -547655.50       UNSATURATED ZONE =         -18044.91
       SATURATED ZONE =         -68669.34         SATURATED ZONE =          -3434.88

 OVERALL BUDGET ERROR =          -2363.48   OVERALL BUDGET ERROR =            -98.26


  PERCENT DISCREPANCY =             -0.22    PERCENT DISCREPANCY =             -0.31



1
 SUMMARY VOLUMETRIC BUDGET FOR GSFLOW 
 DATE: 11 04 1980              CUMULATIVE TIME STEP:      35
 MODFLOW STRESS PERIOD      2     CURRENT TIME STEP:      35     ITERATIONS:       6

 -----------------------------------------------------------------------------------

   CUMULATIVE VOLUMES               L**3   RATES FOR THIS TIME STEP           L**3/T
   ------------------                      ------------------------

                                     IN                                         IN
                                     --                                         --
        PRECIPITATION =        1070903.38          PRECIPITATION =                  
           STREAMFLOW =                               STREAMFLOW =                  
     GW BOUNDARY FLOW =                         GW BOUNDARY FLOW =                  
                WELLS =                                    WELLS =                  


                                    OUT                                        OUT
                                    ---                                        ---
   EVAPOTRANSPIRATION =         961218.31     EVAPOTRANSPIRATION =          44783.99
           STREAMFLOW =         248011.73             STREAMFLOW =           6875.17
     GW BOUNDARY FLOW =          22706.37       GW BOUNDARY FLOW =            648.61
                WELLS =                                    WELLS =                  

   INFLOWS - OUTFLOWS =        -161033.00     INFLOWS - OUTFLOWS =         -52307.77
             --------                                   --------

       STORAGE CHANGE =        -157972.08         STORAGE CHANGE =         -52201.79
       --------------                             --------------
         LAND SURFACE =              0.02           LAND SURFACE =                  
            SOIL ZONE =         609031.38              SOIL ZONE =         -30699.96
     UNSATURATED ZONE =        -671288.31       UNSATURATED ZONE =         -17382.79
       SATURATED ZONE =         -95715.37         SATURATED ZONE =          -4119.04

 OVERALL BUDGET ERROR =          -3060.92   OVERALL BUDGET ERROR =           -105.98


  PERCENT DISCREPANCY =             -0.25    PERCENT DISCREPANCY =             -0.20



1
 SUMMARY VOLUMETRIC BUDGET FOR GSFLOW 
 DATE: 11 11 1980              CUMULATIVE TIME STEP:      42
 MODFLOW STRESS PERIOD      2     CURRENT TIME STEP:      42     ITERATIONS:       7

 -----------------------------------------------------------------------------------

   CUMULATIVE VOLUMES               L**3   RATES FOR THIS TIME STEP           L**3/T
   ------------------                      ------------------------

                                     IN                                         IN
                                     --                                         --
        PRECIPITATION =        1573762.50          PRECIPITATION =         255182.28
           STREAMFLOW =                               STREAMFLOW =                  
     GW BOUNDARY FLOW =                         GW BOUNDARY FLOW =                  
                WELLS =                                    WELLS =                  


                                    OUT                                        OUT
                                    ---                                        ---
   EVAPOTRANSPIRATION =        1206144.13     EVAPOTRANSPIRATION =          16603.96
           STREAMFLOW =         300463.41             STREAMFLOW =           9284.27
     GW BOUNDARY FLOW =          27246.70       GW BOUNDARY FLOW =            648.74
                WELLS =                                    WELLS =                  

   INFLOWS - OUTFLOWS =          39908.25     INFLOWS - OUTFLOWS =         228645.31
             --------                                   --------

       STORAGE CHANGE =          43679.19         STORAGE CHANGE =         228728.55
       --------------                             --------------
         LAND SURFACE =          76836.70           LAND SURFACE =          76106.23
            SOIL ZONE =         882653.69              SOIL ZONE =         173476.58
     UNSATURATED ZONE =        -789957.00       UNSATURATED ZONE =         -16565.75
       SATURATED ZONE =        -125854.48         SATURATED ZONE =          -4288.51

 OVERALL BUDGET ERROR =          -3770.94   OVERALL BUDGET ERROR =            -83.23


  PERCENT DISCREPANCY =             -0.24    PERCENT DISCREPANCY =             -0.03



1
 SUMMARY VOLUMETRIC BUDGET FOR GSFLOW 
 DATE: 11 18 1980              CUMULATIVE TIME STEP:      49
 MODFLOW STRESS PERIOD      2     CURRENT TIME STEP:      49     ITERATIONS:       6

 -----------------------------------------------------------------------------------

   CUMULATIVE VOLUMES               L**3   RATES FOR THIS TIME STEP           L**3/T
   ------------------                      ------------------------

                                     IN                                         IN
                                     --                                         --
        PRECIPITATION =        1573762.50          PRECIPITATION =                  
           STREAMFLOW =                               STREAMFLOW =                  
     GW BOUNDARY FLOW =                         GW BOUNDARY FLOW =                  
                WELLS =                                    WELLS =                  


                                    OUT                                        OUT
                                    ---                                        ---
   EVAPOTRANSPIRATION =        1301005.13     EVAPOTRANSPIRATION =          23595.11
           STREAMFLOW =         360804.03             STREAMFLOW =           8832.54
     GW BOUNDARY FLOW =          31788.17       GW BOUNDARY FLOW =            648.80
                WELLS =                                    WELLS =                  

   INFLOWS - OUTFLOWS =        -119834.88     INFLOWS - OUTFLOWS =         -33076.45
             --------                                   --------

       STORAGE CHANGE =        -115281.77         STORAGE CHANGE =         -32956.41
       --------------                             --------------
         LAND SURFACE =           9213.57           LAND SURFACE =         -10947.37
            SOIL ZONE =         937914.81              SOIL ZONE =          -1191.69
     UNSATURATED ZONE =        -904019.00       UNSATURATED ZONE =         -16038.88
       SATURATED ZONE =        -158391.38         SATURATED ZONE =          -4778.47

 OVERALL BUDGET ERROR =          -4553.11   OVERALL BUDGET ERROR =           -120.04


  PERCENT DISCREPANCY =             -0.27    PERCENT DISCREPANCY =             -0.36



1
 SUMMARY VOLUMETRIC BUDGET FOR GSFLOW 
 DATE: 11 25 1980              CUMULATIVE TIME STEP:      56
 MODFLOW STRESS PERIOD      2     CURRENT TIME STEP:      56     ITERATIONS:       7

 -----------------------------------------------------------------------------------

   CUMULATIVE VOLUMES               L**3   RATES FOR THIS TIME STEP           L**3/T
   ------------------                      ------------------------

                                     IN                                         IN
                                     --                                         --
        PRECIPITATION =        1648816.13          PRECIPITATION =                  
           STREAMFLOW =                               STREAMFLOW =                  
     GW BOUNDARY FLOW =                         GW BOUNDARY FLOW =                  
                WELLS =                                    WELLS =                  


                                    OUT                                        OUT
                                    ---                                        ---
   EVAPOTRANSPIRATION =        1387311.38     EVAPOTRANSPIRATION =           8231.52
           STREAMFLOW =         423662.72             STREAMFLOW =           9074.00
     GW BOUNDARY FLOW =          36329.86       GW BOUNDARY FLOW =            648.82
                WELLS =                                    WELLS =                  

   INFLOWS - OUTFLOWS =        -198487.88     INFLOWS - OUTFLOWS =         -17954.35
             --------                                   --------

       STORAGE CHANGE =        -193140.44         STORAGE CHANGE =         -17858.30
       --------------                             --------------
         LAND SURFACE =          57133.01           LAND SURFACE =          -6950.27
            SOIL ZONE =         957801.56              SOIL ZONE =           9898.56
     UNSATURATED ZONE =       -1013804.44       UNSATURATED ZONE =         -15419.65
       SATURATED ZONE =        -194270.88         SATURATED ZONE =          -5386.94

 OVERALL BUDGET ERROR =          -5347.44   OVERALL BUDGET ERROR =            -96.04


  PERCENT DISCREPANCY =             -0.29    PERCENT DISCREPANCY =             -0.54



1
 SUMMARY VOLUMETRIC BUDGET FOR GSFLOW 
 DATE: 12 02 1980              CUMULATIVE TIME STEP:      63
 MODFLOW STRESS PERIOD      2     CURRENT TIME STEP:      63     ITERATIONS:       9

 -----------------------------------------------------------------------------------

   CUMULATIVE VOLUMES               L**3   RATES FOR THIS TIME STEP           L**3/T
   ------------------                      ------------------------

                                     IN                                         IN
                                     --                                         --
        PRECIPITATION =        2076621.50          PRECIPITATION =                  
           STREAMFLOW =                               STREAMFLOW =                  
     GW BOUNDARY FLOW =                         GW BOUNDARY FLOW =                  
                WELLS =                                    WELLS =                  


                                    OUT                                        OUT
                                    ---                                        ---
   EVAPOTRANSPIRATION =        1586928.25     EVAPOTRANSPIRATION =          33342.84
           STREAMFLOW =         494876.09             STREAMFLOW =          12078.69
     GW BOUNDARY FLOW =          40872.28       GW BOUNDARY FLOW =            649.10
                WELLS =                                    WELLS =                  

   INFLOWS - OUTFLOWS =         -46055.00     INFLOWS - OUTFLOWS =         -46070.63
             --------                                   --------

       STORAGE CHANGE =         -39932.79         STORAGE CHANGE =         -45992.36
       --------------                             --------------
         LAND SURFACE =         147782.89           LAND SURFACE =         -82104.17
            SOIL ZONE =        1161502.13              SOIL ZONE =          54944.70
     UNSATURATED ZONE =       -1117209.63       UNSATURATED ZONE =         -13739.36
       SATURATED ZONE =        -232008.36         SATURATED ZONE =          -5093.52

 OVERALL BUDGET ERROR =          -6122.21   OVERALL BUDGET ERROR =            -78.28


  PERCENT DISCREPANCY =             -0.29    PERCENT DISCREPANCY =             -0.17



1
 SUMMARY VOLUMETRIC BUDGET FOR GSFLOW 
 DATE: 12 09 1980              CUMULATIVE TIME STEP:      70
 MODFLOW STRESS PERIOD      2     CURRENT TIME STEP:      70     ITERATIONS:       7

 -----------------------------------------------------------------------------------

   CUMULATIVE VOLUMES               L**3   RATES FOR THIS TIME STEP           L**3/T
   ------------------                      ------------------------

                                     IN                                         IN
                                     --                                         --
        PRECIPITATION =        4284363.50          PRECIPITATION =                  
           STREAMFLOW =                               STREAMFLOW =                  
     GW BOUNDARY FLOW =                         GW BOUNDARY FLOW =                  
                WELLS =                                    WELLS =                  


                                    OUT                                        OUT
                                    ---                                        ---
   EVAPOTRANSPIRATION =        1610523.63     EVAPOTRANSPIRATION =           3155.38
           STREAMFLOW =         578849.56             STREAMFLOW =          12409.97
     GW BOUNDARY FLOW =          45416.99       GW BOUNDARY FLOW =            649.35
                WELLS =                                    WELLS =                  

   INFLOWS - OUTFLOWS =        2049573.25     INFLOWS - OUTFLOWS =         -16214.70
             --------                                   --------

       STORAGE CHANGE =        2056354.88         STORAGE CHANGE =         -16126.59
       --------------                             --------------
         LAND SURFACE =        2330266.25           LAND SURFACE =          -3155.18
            SOIL ZONE =        1214740.50              SOIL ZONE =           7256.14
     UNSATURATED ZONE =       -1216972.63       UNSATURATED ZONE =         -14292.39
       SATURATED ZONE =        -271679.19         SATURATED ZONE =          -5935.17

 OVERALL BUDGET ERROR =          -6781.63   OVERALL BUDGET ERROR =            -88.10


  PERCENT DISCREPANCY =             -0.16    PERCENT DISCREPANCY =             -0.54



1
 SUMMARY VOLUMETRIC BUDGET FOR GSFLOW 
 DATE: 12 16 1980              CUMULATIVE TIME STEP:      77
 MODFLOW STRESS PERIOD      2     CURRENT TIME STEP:      77     ITERATIONS:       7

 -----------------------------------------------------------------------------------

   CUMULATIVE VOLUMES               L**3   RATES FOR THIS TIME STEP           L**3/T
   ------------------                      ------------------------

                                     IN                                         IN
                                     --                                         --
        PRECIPITATION =        4284363.50          PRECIPITATION =                  
           STREAMFLOW =                               STREAMFLOW =                  
     GW BOUNDARY FLOW =                         GW BOUNDARY FLOW =                  
                WELLS =                                    WELLS =                  


                                    OUT                                        OUT
                                    ---                                        ---
   EVAPOTRANSPIRATION =        1751239.38     EVAPOTRANSPIRATION =          35034.81
           STREAMFLOW =         678701.13             STREAMFLOW =          18886.79
     GW BOUNDARY FLOW =          49963.41       GW BOUNDARY FLOW =            649.78
                WELLS =                                    WELLS =                  

   INFLOWS - OUTFLOWS =        1804459.50     INFLOWS - OUTFLOWS =         -54571.38
             --------                                   --------

       STORAGE CHANGE =        1811877.75         STORAGE CHANGE =         -54483.79
       --------------                             --------------
         LAND SURFACE =        1995071.00           LAND SURFACE =        -141487.53
            SOIL ZONE =        1437153.38              SOIL ZONE =         101164.25
     UNSATURATED ZONE =       -1308168.75       UNSATURATED ZONE =          -9584.89
       SATURATED ZONE =        -312177.88         SATURATED ZONE =          -4575.62

 OVERALL BUDGET ERROR =          -7418.25   OVERALL BUDGET ERROR =            -87.59


  PERCENT DISCREPANCY =             -0.17    PERCENT DISCREPANCY =             -0.16



1
 SUMMARY VOLUMETRIC BUDGET FOR GSFLOW 
 DATE: 12 23 1980              CUMULATIVE TIME STEP:      84
 MODFLOW STRESS PERIOD      2     CURRENT TIME STEP:      84     ITERATIONS:      10

 -----------------------------------------------------------------------------------

   CUMULATIVE VOLUMES               L**3   RATES FOR THIS TIME STEP           L**3/T
   ------------------                      ------------------------

                                     IN                                         IN
                                     --                                         --
        PRECIPITATION =        4516757.50          PRECIPITATION =                  
           STREAMFLOW =                               STREAMFLOW =                  
     GW BOUNDARY FLOW =                         GW BOUNDARY FLOW =                  
                WELLS =                                    WELLS =                  


                                    OUT                                        OUT
                                    ---                                        ---
   EVAPOTRANSPIRATION =        1951422.25     EVAPOTRANSPIRATION =          30834.56
           STREAMFLOW =         879761.63             STREAMFLOW =          31744.14
     GW BOUNDARY FLOW =          54521.09       GW BOUNDARY FLOW =            651.73
                WELLS =                                    WELLS =                  

   INFLOWS - OUTFLOWS =        1631052.50     INFLOWS - OUTFLOWS =         -63230.43
             --------                                   --------

       STORAGE CHANGE =        1638960.13         STORAGE CHANGE =         -63166.75
       --------------                             --------------
         LAND SURFACE =        1363326.88           LAND SURFACE =         -50799.27
            SOIL ZONE =        1967731.75              SOIL ZONE =          -1854.06
     UNSATURATED ZONE =       -1353182.75       UNSATURATED ZONE =          -6446.57
       SATURATED ZONE =        -338915.84         SATURATED ZONE =          -4066.85

 OVERALL BUDGET ERROR =          -7907.63   OVERALL BUDGET ERROR =            -63.68


  PERCENT DISCREPANCY =             -0.17    PERCENT DISCREPANCY =             -0.10



1
 SUMMARY VOLUMETRIC BUDGET FOR GSFLOW 
 DATE: 12 30 1980              CUMULATIVE TIME STEP:      91
 MODFLOW STRESS PERIOD      2     CURRENT TIME STEP:      91     ITERATIONS:      11

 -----------------------------------------------------------------------------------

   CUMULATIVE VOLUMES               L**3   RATES FOR THIS TIME STEP           L**3/T
   ------------------                      ------------------------

                                     IN                                         IN
                                     --                                         --
        PRECIPITATION =        4516757.50          PRECIPITATION =                  
           STREAMFLOW =                               STREAMFLOW =                  
     GW BOUNDARY FLOW =                         GW BOUNDARY FLOW =                  
                WELLS =                                    WELLS =                  


                                    OUT                                        OUT
                                    ---                                        ---
   EVAPOTRANSPIRATION =        2275879.50     EVAPOTRANSPIRATION =          42436.16
           STREAMFLOW =        1116609.13             STREAMFLOW =          29818.80
     GW BOUNDARY FLOW =          59087.20       GW BOUNDARY FLOW =            652.61
                WELLS =                                    WELLS =                  

   INFLOWS - OUTFLOWS =        1065181.75     INFLOWS - OUTFLOWS =         -72907.56
             --------                                   --------

       STORAGE CHANGE =        1073481.63         STORAGE CHANGE =         -72856.29
       --------------                             --------------
         LAND SURFACE =         549182.31           LAND SURFACE =         -43724.88
            SOIL ZONE =        2253629.75              SOIL ZONE =         -21933.50
     UNSATURATED ZONE =       -1366291.75       UNSATURATED ZONE =          -3292.32
       SATURATED ZONE =        -363038.78         SATURATED ZONE =          -3905.60

 OVERALL BUDGET ERROR =          -8299.88   OVERALL BUDGET ERROR =            -51.27


  PERCENT DISCREPANCY =             -0.18    PERCENT DISCREPANCY =             -0.07



1
 SUMMARY VOLUMETRIC BUDGET FOR GSFLOW 
 DATE: 01 06 1981              CUMULATIVE TIME STEP:      98
 MODFLOW STRESS PERIOD      2     CURRENT TIME STEP:      98     ITERATIONS:       8

 -----------------------------------------------------------------------------------

   CUMULATIVE VOLUMES               L**3   RATES FOR THIS TIME STEP           L**3/T
   ------------------                      ------------------------

                                     IN                                         IN
                                     --                                         --
        PRECIPITATION =        5004445.00          PRECIPITATION =                  
           STREAMFLOW =                               STREAMFLOW =                  
     GW BOUNDARY FLOW =                         GW BOUNDARY FLOW =                  
                WELLS =                                    WELLS =                  


                                    OUT                                        OUT
                                    ---                                        ---
   EVAPOTRANSPIRATION =        2478475.00     EVAPOTRANSPIRATION =          16577.42
           STREAMFLOW =        1275324.75             STREAMFLOW =          21092.10
     GW BOUNDARY FLOW =          63649.89       GW BOUNDARY FLOW =            651.26
                WELLS =                                    WELLS =                  

   INFLOWS - OUTFLOWS =        1186995.25     INFLOWS - OUTFLOWS =         -38320.78
             --------                                   --------

       STORAGE CHANGE =        1195667.00         STORAGE CHANGE =         -38258.89
       --------------                             --------------
         LAND SURFACE =         805406.19           LAND SURFACE =         -23847.19
            SOIL ZONE =        2219811.25              SOIL ZONE =           2254.20
     UNSATURATED ZONE =       -1429715.50       UNSATURATED ZONE =         -10983.48
       SATURATED ZONE =        -399835.09         SATURATED ZONE =          -5682.42

 OVERALL BUDGET ERROR =          -8671.75   OVERALL BUDGET ERROR =            -61.88


  PERCENT DISCREPANCY =             -0.17    PERCENT DISCREPANCY =             -0.16



1
 SUMMARY VOLUMETRIC BUDGET FOR GSFLOW 
 DATE: 01 13 1981              CUMULATIVE TIME STEP:     105
 MODFLOW STRESS PERIOD      2     CURRENT TIME STEP:     105     ITERATIONS:       7

 -----------------------------------------------------------------------------------

   CUMULATIVE VOLUMES               L**3   RATES FOR THIS TIME STEP           L**3/T
   ------------------                      ------------------------

                                     IN                                         IN
                                     --                                         --
        PRECIPITATION =        5004445.00          PRECIPITATION =                  
           STREAMFLOW =                               STREAMFLOW =                  
     GW BOUNDARY FLOW =                         GW BOUNDARY FLOW =                  
                WELLS =                                    WELLS =                  


                                    OUT                                        OUT
                                    ---                                        ---
   EVAPOTRANSPIRATION =        2681488.00     EVAPOTRANSPIRATION =          42753.38
           STREAMFLOW =        1429193.63             STREAMFLOW =          21610.78
     GW BOUNDARY FLOW =          68207.39       GW BOUNDARY FLOW =            651.00
                WELLS =                                    WELLS =                  

   INFLOWS - OUTFLOWS =         825556.00     INFLOWS - OUTFLOWS =         -65015.16
             --------                                   --------

       STORAGE CHANGE =         834708.31         STORAGE CHANGE =         -64937.50
       --------------                             --------------
         LAND SURFACE =         537498.50           LAND SURFACE =         -43740.50
            SOIL ZONE =        2223875.00              SOIL ZONE =          -8643.95
     UNSATURATED ZONE =       -1485891.38       UNSATURATED ZONE =          -6524.21
       SATURATED ZONE =        -440774.19         SATURATED ZONE =          -6028.83

 OVERALL BUDGET ERROR =          -9152.31   OVERALL BUDGET ERROR =            -77.67


  PERCENT DISCREPANCY =             -0.18    PERCENT DISCREPANCY =             -0.12



1
 SUMMARY VOLUMETRIC BUDGET FOR GSFLOW 
 DATE: 01 20 1981              CUMULATIVE TIME STEP:     112
 MODFLOW STRESS PERIOD      2     CURRENT TIME STEP:     112     ITERATIONS:       8

 -----------------------------------------------------------------------------------

   CUMULATIVE VOLUMES               L**3   RATES FOR THIS TIME STEP           L**3/T
   ------------------                      ------------------------

                                     IN                                         IN
                                     --                                         --
        PRECIPITATION =        5170466.50          PRECIPITATION =          41505.35
           STREAMFLOW =                               STREAMFLOW =                  
     GW BOUNDARY FLOW =                         GW BOUNDARY FLOW =                  
                WELLS =                                    WELLS =                  


                                    OUT                                        OUT
                                    ---                                        ---
   EVAPOTRANSPIRATION =        2975419.50     EVAPOTRANSPIRATION =          54947.57
           STREAMFLOW =        1571331.88             STREAMFLOW =          19589.59
     GW BOUNDARY FLOW =          72762.51       GW BOUNDARY FLOW =            650.58
                WELLS =                                    WELLS =                  

   INFLOWS - OUTFLOWS =         550952.50     INFLOWS - OUTFLOWS =         -33682.39
             --------                                   --------

       STORAGE CHANGE =         560626.81         STORAGE CHANGE =         -33610.96
       --------------                             --------------
         LAND SURFACE =         379007.84           LAND SURFACE =          -6817.40
            SOIL ZONE =        2183448.25              SOIL ZONE =         -17907.31
     UNSATURATED ZONE =       -1517002.50       UNSATURATED ZONE =          -2279.77
       SATURATED ZONE =        -484826.59         SATURATED ZONE =          -6606.48

 OVERALL BUDGET ERROR =          -9674.31   OVERALL BUDGET ERROR =            -71.42


  PERCENT DISCREPANCY =             -0.19    PERCENT DISCREPANCY =             -0.10



1
 SUMMARY VOLUMETRIC BUDGET FOR GSFLOW 
 DATE: 01 27 1981              CUMULATIVE TIME STEP:     119
 MODFLOW STRESS PERIOD      2     CURRENT TIME STEP:     119     ITERATIONS:       8

 -----------------------------------------------------------------------------------

   CUMULATIVE VOLUMES               L**3   RATES FOR THIS TIME STEP           L**3/T
   ------------------                      ------------------------

                                     IN                                         IN
                                     --                                         --
        PRECIPITATION =        8646539.00          PRECIPITATION =        2936503.25
           STREAMFLOW =                               STREAMFLOW =                  
     GW BOUNDARY FLOW =                         GW BOUNDARY FLOW =                  
                WELLS =                                    WELLS =                  


                                    OUT                                        OUT
                                    ---                                        ---
   EVAPOTRANSPIRATION =        3199075.00     EVAPOTRANSPIRATION =          12594.32
           STREAMFLOW =        1703353.50             STREAMFLOW =          18215.31
     GW BOUNDARY FLOW =          77315.45       GW BOUNDARY FLOW =            650.32
                WELLS =                                    WELLS =                  

   INFLOWS - OUTFLOWS =        3666795.00     INFLOWS - OUTFLOWS =        2905043.25
             --------                                   --------

       STORAGE CHANGE =        3676878.75         STORAGE CHANGE =        2905103.75
       --------------                             --------------
         LAND SURFACE =        3533081.25           LAND SURFACE =        2923908.50
            SOIL ZONE =        2197357.00              SOIL ZONE =          -5541.14
     UNSATURATED ZONE =       -1523102.75       UNSATURATED ZONE =          -6249.28
       SATURATED ZONE =        -530456.69         SATURATED ZONE =          -7014.19

 OVERALL BUDGET ERROR =         -10083.75   OVERALL BUDGET ERROR =            -60.50


  PERCENT DISCREPANCY =             -0.12    PERCENT DISCREPANCY =              0.00



1
 SUMMARY VOLUMETRIC BUDGET FOR GSFLOW 
 DATE: 02 03 1981              CUMULATIVE TIME STEP:     126
 MODFLOW STRESS PERIOD      2     CURRENT TIME STEP:     126     ITERATIONS:       8

 -----------------------------------------------------------------------------------

   CUMULATIVE VOLUMES               L**3   RATES FOR THIS TIME STEP           L**3/T
   ------------------                      ------------------------

                                     IN                                         IN
                                     --                                         --
        PRECIPITATION =        1.1739E+07          PRECIPITATION =                  
           STREAMFLOW =                               STREAMFLOW =                  
     GW BOUNDARY FLOW =                         GW BOUNDARY FLOW =                  
                WELLS =                                    WELLS =                  


                                    OUT                                        OUT
                                    ---                                        ---
   EVAPOTRANSPIRATION =        3230971.50     EVAPOTRANSPIRATION =           6138.37
           STREAMFLOW =        1828878.25             STREAMFLOW =          17924.01
     GW BOUNDARY FLOW =          81867.27       GW BOUNDARY FLOW =            650.25
                WELLS =                                    WELLS =                  

   INFLOWS - OUTFLOWS =        6596971.00     INFLOWS - OUTFLOWS =         -24712.63
             --------                                   --------

       STORAGE CHANGE =        6607545.00         STORAGE CHANGE =         -24643.37
       --------------                             --------------
         LAND SURFACE =        6593335.00           LAND SURFACE =          -6137.87
            SOIL ZONE =        2191282.00              SOIL ZONE =            683.32
     UNSATURATED ZONE =       -1594174.75       UNSATURATED ZONE =         -11384.21
       SATURATED ZONE =        -582896.13         SATURATED ZONE =          -7804.61

 OVERALL BUDGET ERROR =         -10574.00   OVERALL BUDGET ERROR =            -69.26


  PERCENT DISCREPANCY =             -0.09    PERCENT DISCREPANCY =             -0.28



1
 SUMMARY VOLUMETRIC BUDGET FOR GSFLOW 
 DATE: 02 10 1981              CUMULATIVE TIME STEP:     133
 MODFLOW STRESS PERIOD      2     CURRENT TIME STEP:     133     ITERATIONS:       7

 -----------------------------------------------------------------------------------

   CUMULATIVE VOLUMES               L**3   RATES FOR THIS TIME STEP           L**3/T
   ------------------                      ------------------------

                                     IN                                         IN
                                     --                                         --
        PRECIPITATION =        1.1838E+07          PRECIPITATION =                  
           STREAMFLOW =                               STREAMFLOW =                  
     GW BOUNDARY FLOW =                         GW BOUNDARY FLOW =                  
                WELLS =                                    WELLS =                  


                                    OUT                                        OUT
                                    ---                                        ---
   EVAPOTRANSPIRATION =        3345336.25     EVAPOTRANSPIRATION =          26214.72
           STREAMFLOW =        1954961.88             STREAMFLOW =          18059.49
     GW BOUNDARY FLOW =          86418.96       GW BOUNDARY FLOW =            650.23
                WELLS =                                    WELLS =                  

   INFLOWS - OUTFLOWS =        6451536.00     INFLOWS - OUTFLOWS =         -44924.45
             --------                                   --------

       STORAGE CHANGE =        6462611.50         STORAGE CHANGE =         -44829.61
       --------------                             --------------
         LAND SURFACE =        6578533.00           LAND SURFACE =         -26214.86
            SOIL ZONE =        2195895.00              SOIL ZONE =            601.32
     UNSATURATED ZONE =       -1671882.63       UNSATURATED ZONE =         -10857.90
       SATURATED ZONE =        -639932.88         SATURATED ZONE =          -8358.17

 OVERALL BUDGET ERROR =         -11075.50   OVERALL BUDGET ERROR =            -94.84


  PERCENT DISCREPANCY =             -0.09    PERCENT DISCREPANCY =             -0.21



1
 SUMMARY VOLUMETRIC BUDGET FOR GSFLOW 
 DATE: 02 17 1981              CUMULATIVE TIME STEP:     140
 MODFLOW STRESS PERIOD      2     CURRENT TIME STEP:     140     ITERATIONS:      16

 -----------------------------------------------------------------------------------

   CUMULATIVE VOLUMES               L**3   RATES FOR THIS TIME STEP           L**3/T
   ------------------                      ------------------------

                                     IN                                         IN
                                     --                                         --
        PRECIPITATION =        1.2765E+07          PRECIPITATION =          68929.30
           STREAMFLOW =                               STREAMFLOW =                  
     GW BOUNDARY FLOW =                         GW BOUNDARY FLOW =                  
                WELLS =                                    WELLS =                  


                                    OUT                                        OUT
                                    ---                                        ---
   EVAPOTRANSPIRATION =        3699356.75     EVAPOTRANSPIRATION =          68269.65
           STREAMFLOW =        2310621.25             STREAMFLOW =          86599.55
     GW BOUNDARY FLOW =          90984.98       GW BOUNDARY FLOW =            655.30
                WELLS =                                    WELLS =                  

   INFLOWS - OUTFLOWS =        6664004.00     INFLOWS - OUTFLOWS =         -86595.20
             --------                                   --------

       STORAGE CHANGE =        6675543.00         STORAGE CHANGE =         -86548.71
       --------------                             --------------
         LAND SURFACE =        5669636.00           LAND SURFACE =        -264108.34
            SOIL ZONE =        3075094.50              SOIL ZONE =          90627.63
     UNSATURATED ZONE =       -1411665.50       UNSATURATED ZONE =          84015.26
       SATURATED ZONE =        -657521.69         SATURATED ZONE =           2916.74

 OVERALL BUDGET ERROR =         -11539.00   OVERALL BUDGET ERROR =            -46.49


  PERCENT DISCREPANCY =             -0.09    PERCENT DISCREPANCY =             -0.03



1
 SUMMARY VOLUMETRIC BUDGET FOR GSFLOW 
 DATE: 02 24 1981              CUMULATIVE TIME STEP:     147
 MODFLOW STRESS PERIOD      2     CURRENT TIME STEP:     147     ITERATIONS:      14

 -----------------------------------------------------------------------------------

   CUMULATIVE VOLUMES               L**3   RATES FOR THIS TIME STEP           L**3/T
   ------------------                      ------------------------

                                     IN                                         IN
                                     --                                         --
        PRECIPITATION =        1.3179E+07          PRECIPITATION =         344646.34
           STREAMFLOW =                               STREAMFLOW =                  
     GW BOUNDARY FLOW =                         GW BOUNDARY FLOW =                  
                WELLS =                                    WELLS =                  


                                    OUT                                        OUT
                                    ---                                        ---
   EVAPOTRANSPIRATION =        4035718.75     EVAPOTRANSPIRATION =          19833.49
           STREAMFLOW =        2864414.00             STREAMFLOW =          60330.85
     GW BOUNDARY FLOW =          95578.70       GW BOUNDARY FLOW =            655.91
                WELLS =                                    WELLS =                  

   INFLOWS - OUTFLOWS =        6182830.50     INFLOWS - OUTFLOWS =         263826.09
             --------                                   --------

       STORAGE CHANGE =        6194522.00         STORAGE CHANGE =         263838.81
       --------------                             --------------
         LAND SURFACE =        4985154.00           LAND SURFACE =         299551.13
            SOIL ZONE =        2806788.25              SOIL ZONE =         -76848.31
     UNSATURATED ZONE =        -983292.38       UNSATURATED ZONE =          35103.95
       SATURATED ZONE =        -614127.94         SATURATED ZONE =           6032.03

 OVERALL BUDGET ERROR =         -11691.50   OVERALL BUDGET ERROR =            -12.72


  PERCENT DISCREPANCY =             -0.09    PERCENT DISCREPANCY =              0.00



1
 SUMMARY VOLUMETRIC BUDGET FOR GSFLOW 
 DATE: 03 03 1981              CUMULATIVE TIME STEP:     154
 MODFLOW STRESS PERIOD      2     CURRENT TIME STEP:     154     ITERATIONS:      13

 -----------------------------------------------------------------------------------

   CUMULATIVE VOLUMES               L**3   RATES FOR THIS TIME STEP           L**3/T
   ------------------                      ------------------------

                                     IN                                         IN
                                     --                                         --
        PRECIPITATION =        1.3447E+07          PRECIPITATION =                  
           STREAMFLOW =                               STREAMFLOW =                  
     GW BOUNDARY FLOW =                         GW BOUNDARY FLOW =                  
                WELLS =                                    WELLS =                  


                                    OUT                                        OUT
                                    ---                                        ---
   EVAPOTRANSPIRATION =        4184288.50     EVAPOTRANSPIRATION =          44522.61
           STREAMFLOW =        3123232.00             STREAMFLOW =          28499.69
     GW BOUNDARY FLOW =         100155.57       GW BOUNDARY FLOW =            652.58
                WELLS =                                    WELLS =                  

   INFLOWS - OUTFLOWS =        6038924.00     INFLOWS - OUTFLOWS =         -73674.89
             --------                                   --------

       STORAGE CHANGE =        6050734.50         STORAGE CHANGE =         -73648.20
       --------------                             --------------
         LAND SURFACE =        5084995.00           LAND SURFACE =         -62859.67
            SOIL ZONE =        2524217.00              SOIL ZONE =          -1964.06
     UNSATURATED ZONE =        -955818.25       UNSATURATED ZONE =          -8735.21
       SATURATED ZONE =        -602658.56         SATURATED ZONE =            -89.26

 OVERALL BUDGET ERROR =         -11810.50   OVERALL BUDGET ERROR =            -26.69


  PERCENT DISCREPANCY =             -0.09    PERCENT DISCREPANCY =             -0.04



1
 SUMMARY VOLUMETRIC BUDGET FOR GSFLOW 
 DATE: 03 10 1981              CUMULATIVE TIME STEP:     161
 MODFLOW STRESS PERIOD      2     CURRENT TIME STEP:     161     ITERATIONS:      12

 -----------------------------------------------------------------------------------

   CUMULATIVE VOLUMES               L**3   RATES FOR THIS TIME STEP           L**3/T
   ------------------                      ------------------------

                                     IN                                         IN
                                     --                                         --
        PRECIPITATION =        1.3493E+07          PRECIPITATION =                  
           STREAMFLOW =                               STREAMFLOW =                  
     GW BOUNDARY FLOW =                         GW BOUNDARY FLOW =                  
                WELLS =                                    WELLS =                  


                                    OUT                                        OUT
                                    ---                                        ---
   EVAPOTRANSPIRATION =        4495613.00     EVAPOTRANSPIRATION =          63261.64
           STREAMFLOW =        3349024.75             STREAMFLOW =          40141.58
     GW BOUNDARY FLOW =         104721.91       GW BOUNDARY FLOW =            652.81
                WELLS =                                    WELLS =                  

   INFLOWS - OUTFLOWS =        5543578.50     INFLOWS - OUTFLOWS =        -104056.03
             --------                                   --------

       STORAGE CHANGE =        5555528.50         STORAGE CHANGE =        -104033.86
       --------------                             --------------
         LAND SURFACE =        4404836.50           LAND SURFACE =        -168388.50
            SOIL ZONE =        2673310.75              SOIL ZONE =          40231.66
     UNSATURATED ZONE =        -920268.31       UNSATURATED ZONE =          22941.37
       SATURATED ZONE =        -602349.00         SATURATED ZONE =           1181.61

 OVERALL BUDGET ERROR =         -11950.00   OVERALL BUDGET ERROR =            -22.17


  PERCENT DISCREPANCY =             -0.09    PERCENT DISCREPANCY =             -0.02



1
 SUMMARY VOLUMETRIC BUDGET FOR GSFLOW 
 DATE: 03 17 1981              CUMULATIVE TIME STEP:     168
 MODFLOW STRESS PERIOD      2     CURRENT TIME STEP:     168     ITERATIONS:      11

 -----------------------------------------------------------------------------------

   CUMULATIVE VOLUMES               L**3   RATES FOR THIS TIME STEP           L**3/T
   ------------------                      ------------------------

                                     IN                                         IN
                                     --                                         --
        PRECIPITATION =        1.3744E+07          PRECIPITATION =                  
           STREAMFLOW =                               STREAMFLOW =                  
     GW BOUNDARY FLOW =                         GW BOUNDARY FLOW =                  
                WELLS =                                    WELLS =                  


                                    OUT                                        OUT
                                    ---                                        ---
   EVAPOTRANSPIRATION =        4852190.00     EVAPOTRANSPIRATION =          39557.79
           STREAMFLOW =        3595719.25             STREAMFLOW =          27017.58
     GW BOUNDARY FLOW =         109291.54       GW BOUNDARY FLOW =            652.40
                WELLS =                                    WELLS =                  

   INFLOWS - OUTFLOWS =        5187287.00     INFLOWS - OUTFLOWS =         -67227.77
             --------                                   --------

       STORAGE CHANGE =        5199349.50         STORAGE CHANGE =         -67199.35
       --------------                             --------------
         LAND SURFACE =        4226395.50           LAND SURFACE =         -29405.01
            SOIL ZONE =        2469336.00              SOIL ZONE =         -18433.72
     UNSATURATED ZONE =        -889091.06       UNSATURATED ZONE =         -16601.46
       SATURATED ZONE =        -607288.94         SATURATED ZONE =          -2759.16

 OVERALL BUDGET ERROR =         -12062.50   OVERALL BUDGET ERROR =            -28.42


  PERCENT DISCREPANCY =             -0.09    PERCENT DISCREPANCY =             -0.04



1
 SUMMARY VOLUMETRIC BUDGET FOR GSFLOW 
 DATE: 03 24 1981              CUMULATIVE TIME STEP:     175
 MODFLOW STRESS PERIOD      2     CURRENT TIME STEP:     175     ITERATIONS:      10

 -----------------------------------------------------------------------------------

   CUMULATIVE VOLUMES               L**3   RATES FOR THIS TIME STEP           L**3/T
   ------------------                      ------------------------

                                     IN                                         IN
                                     --                                         --
        PRECIPITATION =        1.4367E+07          PRECIPITATION =                  
           STREAMFLOW =                               STREAMFLOW =                  
     GW BOUNDARY FLOW =                         GW BOUNDARY FLOW =                  
                WELLS =                                    WELLS =                  


                                    OUT                                        OUT
                                    ---                                        ---
   EVAPOTRANSPIRATION =        5205247.00     EVAPOTRANSPIRATION =          85696.12
           STREAMFLOW =        3766112.75             STREAMFLOW =          27055.29
     GW BOUNDARY FLOW =         113852.92       GW BOUNDARY FLOW =            651.38
                WELLS =                                    WELLS =                  

   INFLOWS - OUTFLOWS =        5281530.00     INFLOWS - OUTFLOWS =        -113402.80
             --------                                   --------

       STORAGE CHANGE =        5293756.50         STORAGE CHANGE =        -113367.59
       --------------                             --------------
         LAND SURFACE =        4543339.00           LAND SURFACE =         -83132.00
            SOIL ZONE =        2364944.25              SOIL ZONE =         -21013.58
     UNSATURATED ZONE =        -981302.38       UNSATURATED ZONE =          -5480.09
       SATURATED ZONE =        -633222.06         SATURATED ZONE =          -3741.92

 OVERALL BUDGET ERROR =         -12226.50   OVERALL BUDGET ERROR =            -35.21


  PERCENT DISCREPANCY =             -0.09    PERCENT DISCREPANCY =             -0.03



1
 SUMMARY VOLUMETRIC BUDGET FOR GSFLOW 
 DATE: 03 31 1981              CUMULATIVE TIME STEP:     182
 MODFLOW STRESS PERIOD      2     CURRENT TIME STEP:     182     ITERATIONS:      12

 -----------------------------------------------------------------------------------

   CUMULATIVE VOLUMES               L**3   RATES FOR THIS TIME STEP           L**3/T
   ------------------                      ------------------------

                                     IN                                         IN
                                     --                                         --
        PRECIPITATION =        1.5777E+07          PRECIPITATION =                  
           STREAMFLOW =                               STREAMFLOW =                  
     GW BOUNDARY FLOW =                         GW BOUNDARY FLOW =                  
                WELLS =                                    WELLS =                  


                                    OUT                                        OUT
                                    ---                                        ---
   EVAPOTRANSPIRATION =        5630757.00     EVAPOTRANSPIRATION =          55419.52
           STREAMFLOW =        4156117.50             STREAMFLOW =          41973.99
     GW BOUNDARY FLOW =         118429.41       GW BOUNDARY FLOW =            653.73
                WELLS =                                    WELLS =                  

   INFLOWS - OUTFLOWS =        5871442.00     INFLOWS - OUTFLOWS =         -98047.25
             --------                                   --------

       STORAGE CHANGE =        5883806.00         STORAGE CHANGE =         -98040.80
       --------------                             --------------
         LAND SURFACE =        4691508.50           LAND SURFACE =         -44614.86
            SOIL ZONE =        2566935.25              SOIL ZONE =         -57911.94
     UNSATURATED ZONE =        -755562.19       UNSATURATED ZONE =           4229.81
       SATURATED ZONE =        -619072.69         SATURATED ZONE =            256.18

 OVERALL BUDGET ERROR =         -12364.00   OVERALL BUDGET ERROR =             -6.45


  PERCENT DISCREPANCY =             -0.08    PERCENT DISCREPANCY =             -0.01



1
 SUMMARY VOLUMETRIC BUDGET FOR GSFLOW 
 DATE: 04 07 1981              CUMULATIVE TIME STEP:     189
 MODFLOW STRESS PERIOD      3     CURRENT TIME STEP:       7     ITERATIONS:      11

 -----------------------------------------------------------------------------------

   CUMULATIVE VOLUMES               L**3   RATES FOR THIS TIME STEP           L**3/T
   ------------------                      ------------------------

                                     IN                                         IN
                                     --                                         --
        PRECIPITATION =        1.6121E+07          PRECIPITATION =                  
           STREAMFLOW =                               STREAMFLOW =                  
     GW BOUNDARY FLOW =                         GW BOUNDARY FLOW =                  
                WELLS =                                    WELLS =                  


                                    OUT                                        OUT
                                    ---                                        ---
   EVAPOTRANSPIRATION =        6263305.00     EVAPOTRANSPIRATION =         106275.35
           STREAMFLOW =        4454866.00             STREAMFLOW =          46315.21
     GW BOUNDARY FLOW =         123004.41       GW BOUNDARY FLOW =            653.80
                WELLS =                                    WELLS =                  

   INFLOWS - OUTFLOWS =        5280290.00     INFLOWS - OUTFLOWS =        -153244.36
             --------                                   --------

       STORAGE CHANGE =        5292686.50         STORAGE CHANGE =        -153243.73
       --------------                             --------------
         LAND SURFACE =        4061908.50           LAND SURFACE =        -147559.00
            SOIL ZONE =        2528080.75              SOIL ZONE =         -19510.53
     UNSATURATED ZONE =        -688594.19       UNSATURATED ZONE =          12092.88
       SATURATED ZONE =        -608705.25         SATURATED ZONE =           1732.92

 OVERALL BUDGET ERROR =         -12396.50   OVERALL BUDGET ERROR =             -0.63


  PERCENT DISCREPANCY =             -0.08    PERCENT DISCREPANCY =              0.00



1
 SUMMARY VOLUMETRIC BUDGET FOR GSFLOW 
 DATE: 04 14 1981              CUMULATIVE TIME STEP:     196
 MODFLOW STRESS PERIOD      3     CURRENT TIME STEP:      14     ITERATIONS:      13

 -----------------------------------------------------------------------------------

   CUMULATIVE VOLUMES               L**3   RATES FOR THIS TIME STEP           L**3/T
   ------------------                      ------------------------

                                     IN                                         IN
                                     --                                         --
        PRECIPITATION =        1.6121E+07          PRECIPITATION =                  
           STREAMFLOW =                               STREAMFLOW =                  
     GW BOUNDARY FLOW =                         GW BOUNDARY FLOW =                  
                WELLS =                                    WELLS =                  


                                    OUT                                        OUT
                                    ---                                        ---
   EVAPOTRANSPIRATION =        7190340.50     EVAPOTRANSPIRATION =         190847.44
           STREAMFLOW =        4764175.00             STREAMFLOW =          46873.54
     GW BOUNDARY FLOW =         127580.63       GW BOUNDARY FLOW =            653.58
                WELLS =                                    WELLS =                  

   INFLOWS - OUTFLOWS =        4039369.00     INFLOWS - OUTFLOWS =        -238374.56
             --------                                   --------

       STORAGE CHANGE =        4051762.00         STORAGE CHANGE =        -238377.94
       --------------                             --------------
         LAND SURFACE =        2767479.50           LAND SURFACE =        -257183.25
            SOIL ZONE =        2467274.75              SOIL ZONE =          -6776.97
     UNSATURATED ZONE =        -590583.38       UNSATURATED ZONE =          22141.29
       SATURATED ZONE =        -592405.88         SATURATED ZONE =           3441.00

 OVERALL BUDGET ERROR =         -12393.00   OVERALL BUDGET ERROR =              3.38


  PERCENT DISCREPANCY =             -0.08    PERCENT DISCREPANCY =              0.00



1
 SUMMARY VOLUMETRIC BUDGET FOR GSFLOW 
 DATE: 04 21 1981              CUMULATIVE TIME STEP:     203
 MODFLOW STRESS PERIOD      3     CURRENT TIME STEP:      21     ITERATIONS:      14

 -----------------------------------------------------------------------------------

   CUMULATIVE VOLUMES               L**3   RATES FOR THIS TIME STEP           L**3/T
   ------------------                      ------------------------

                                     IN                                         IN
                                     --                                         --
        PRECIPITATION =        1.6310E+07          PRECIPITATION =                  
           STREAMFLOW =                               STREAMFLOW =                  
     GW BOUNDARY FLOW =                         GW BOUNDARY FLOW =                  
                WELLS =                                    WELLS =                  


                                    OUT                                        OUT
                                    ---                                        ---
   EVAPOTRANSPIRATION =        8279155.00     EVAPOTRANSPIRATION =         161423.11
           STREAMFLOW =        5081372.00             STREAMFLOW =          44004.24
     GW BOUNDARY FLOW =         132151.14       GW BOUNDARY FLOW =            652.48
                WELLS =                                    WELLS =                  

   INFLOWS - OUTFLOWS =        2817562.00     INFLOWS - OUTFLOWS =        -206079.83
             --------                                   --------

       STORAGE CHANGE =        2829945.50         STORAGE CHANGE =        -206076.73
       --------------                             --------------
         LAND SURFACE =        1539339.63           LAND SURFACE =        -128240.88
            SOIL ZONE =        2317161.00              SOIL ZONE =        -100290.97
     UNSATURATED ZONE =        -462787.16       UNSATURATED ZONE =          17887.81
       SATURATED ZONE =        -563764.63         SATURATED ZONE =           4567.31

 OVERALL BUDGET ERROR =         -12383.50   OVERALL BUDGET ERROR =             -3.09


  PERCENT DISCREPANCY =             -0.08    PERCENT DISCREPANCY =              0.00



1
 SUMMARY VOLUMETRIC BUDGET FOR GSFLOW 
 DATE: 04 28 1981              CUMULATIVE TIME STEP:     210
 MODFLOW STRESS PERIOD      3     CURRENT TIME STEP:      28     ITERATIONS:      15

 -----------------------------------------------------------------------------------

   CUMULATIVE VOLUMES               L**3   RATES FOR THIS TIME STEP           L**3/T
   ------------------                      ------------------------

                                     IN                                         IN
                                     --                                         --
        PRECIPITATION =        1.6515E+07          PRECIPITATION =                  
           STREAMFLOW =                               STREAMFLOW =                  
     GW BOUNDARY FLOW =                         GW BOUNDARY FLOW =                  
                WELLS =                                    WELLS =                  


                                    OUT                                        OUT
                                    ---                                        ---
   EVAPOTRANSPIRATION =        9548598.00     EVAPOTRANSPIRATION =         204829.02
           STREAMFLOW =        5296209.00             STREAMFLOW =          23012.62
     GW BOUNDARY FLOW =         136710.91       GW BOUNDARY FLOW =            650.50
                WELLS =                                    WELLS =                  

   INFLOWS - OUTFLOWS =        1533912.00     INFLOWS - OUTFLOWS =        -228492.14
             --------                                   --------

       STORAGE CHANGE =        1546349.75         STORAGE CHANGE =        -228473.52
       --------------                             --------------
         LAND SURFACE =         777570.00           LAND SURFACE =         -87708.81
            SOIL ZONE =        1769587.75              SOIL ZONE =        -138447.44
     UNSATURATED ZONE =        -455620.13       UNSATURATED ZONE =          -3808.60
       SATURATED ZONE =        -545184.31         SATURATED ZONE =           1491.34

 OVERALL BUDGET ERROR =         -12437.75   OVERALL BUDGET ERROR =            -18.63


  PERCENT DISCREPANCY =             -0.08    PERCENT DISCREPANCY =             -0.01



1
 SUMMARY VOLUMETRIC BUDGET FOR GSFLOW 
 DATE: 05 05 1981              CUMULATIVE TIME STEP:     217
 MODFLOW STRESS PERIOD      3     CURRENT TIME STEP:      35     ITERATIONS:      14

 -----------------------------------------------------------------------------------

   CUMULATIVE VOLUMES               L**3   RATES FOR THIS TIME STEP           L**3/T
   ------------------                      ------------------------

                                     IN                                         IN
                                     --                                         --
        PRECIPITATION =        1.6515E+07          PRECIPITATION =                  
           STREAMFLOW =                               STREAMFLOW =                  
     GW BOUNDARY FLOW =                         GW BOUNDARY FLOW =                  
                WELLS =                                    WELLS =                  


                                    OUT                                        OUT
                                    ---                                        ---
   EVAPOTRANSPIRATION =        1.0420E+07     EVAPOTRANSPIRATION =          53616.08
           STREAMFLOW =        5400400.50             STREAMFLOW =          11110.94
     GW BOUNDARY FLOW =         141257.44       GW BOUNDARY FLOW =            648.87
                WELLS =                                    WELLS =                  

   INFLOWS - OUTFLOWS =         554094.00     INFLOWS - OUTFLOWS =         -65375.88
             --------                                   --------

       STORAGE CHANGE =         566661.50         STORAGE CHANGE =         -65360.03
       --------------                             --------------
         LAND SURFACE =         406399.09           LAND SURFACE =         -19535.84
            SOIL ZONE =        1262937.38              SOIL ZONE =         -27215.73
     UNSATURATED ZONE =        -552652.06       UNSATURATED ZONE =         -16666.36
       SATURATED ZONE =        -550019.06         SATURATED ZONE =          -1942.11

 OVERALL BUDGET ERROR =         -12567.50   OVERALL BUDGET ERROR =            -15.85


  PERCENT DISCREPANCY =             -0.08    PERCENT DISCREPANCY =             -0.02



1
 SUMMARY VOLUMETRIC BUDGET FOR GSFLOW 
 DATE: 05 12 1981              CUMULATIVE TIME STEP:     224
 MODFLOW STRESS PERIOD      3     CURRENT TIME STEP:      42     ITERATIONS:      23

 -----------------------------------------------------------------------------------

   CUMULATIVE VOLUMES               L**3   RATES FOR THIS TIME STEP           L**3/T
   ------------------                      ------------------------

                                     IN                                         IN
                                     --                                         --
        PRECIPITATION =        1.6515E+07          PRECIPITATION =                  
           STREAMFLOW =                               STREAMFLOW =                  
     GW BOUNDARY FLOW =                         GW BOUNDARY FLOW =                  
                WELLS =                                    WELLS =                  


                                    OUT                                        OUT
                                    ---                                        ---
   EVAPOTRANSPIRATION =        1.0931E+07     EVAPOTRANSPIRATION =          93118.15
           STREAMFLOW =        5470888.00             STREAMFLOW =          10034.90
     GW BOUNDARY FLOW =         145796.59       GW BOUNDARY FLOW =            648.26
                WELLS =                                    WELLS =                  

   INFLOWS - OUTFLOWS =         -32645.00     INFLOWS - OUTFLOWS =        -103801.31
             --------                                   --------

       STORAGE CHANGE =         -19913.78         STORAGE CHANGE =        -103766.43
       --------------                             --------------
         LAND SURFACE =         241346.14           LAND SURFACE =         -28711.48
            SOIL ZONE =         971557.06              SOIL ZONE =         -57468.67
     UNSATURATED ZONE =        -658346.13       UNSATURATED ZONE =         -13092.33
       SATURATED ZONE =        -574467.06         SATURATED ZONE =          -4493.94

 OVERALL BUDGET ERROR =         -12731.22   OVERALL BUDGET ERROR =            -34.88


  PERCENT DISCREPANCY =             -0.08    PERCENT DISCREPANCY =             -0.03



1
 SUMMARY VOLUMETRIC BUDGET FOR GSFLOW 
 DATE: 05 19 1981              CUMULATIVE TIME STEP:     231
 MODFLOW STRESS PERIOD      3     CURRENT TIME STEP:      49     ITERATIONS:      20

 -----------------------------------------------------------------------------------

   CUMULATIVE VOLUMES               L**3   RATES FOR THIS TIME STEP           L**3/T
   ------------------                      ------------------------

                                     IN                                         IN
                                     --                                         --
        PRECIPITATION =        1.7837E+07          PRECIPITATION =         169045.44
           STREAMFLOW =                               STREAMFLOW =                  
     GW BOUNDARY FLOW =                         GW BOUNDARY FLOW =                  
                WELLS =                                    WELLS =                  


                                    OUT                                        OUT
                                    ---                                        ---
   EVAPOTRANSPIRATION =        1.1356E+07     EVAPOTRANSPIRATION =          31098.89
           STREAMFLOW =        5572163.00             STREAMFLOW =          25256.30
     GW BOUNDARY FLOW =         150335.25       GW BOUNDARY FLOW =            649.09
                WELLS =                                    WELLS =                  

   INFLOWS - OUTFLOWS =         758706.00     INFLOWS - OUTFLOWS =         112041.16
             --------                                   --------

       STORAGE CHANGE =         771617.44         STORAGE CHANGE =         112067.09
       --------------                             --------------
         LAND SURFACE =         201987.53           LAND SURFACE =          47358.25
            SOIL ZONE =        1896749.50              SOIL ZONE =          67583.19
     UNSATURATED ZONE =        -720321.13       UNSATURATED ZONE =            403.96
       SATURATED ZONE =        -606794.63         SATURATED ZONE =          -3278.32

 OVERALL BUDGET ERROR =         -12911.44   OVERALL BUDGET ERROR =            -25.93


  PERCENT DISCREPANCY =             -0.07    PERCENT DISCREPANCY =             -0.02



1
 SUMMARY VOLUMETRIC BUDGET FOR GSFLOW 
 DATE: 05 26 1981              CUMULATIVE TIME STEP:     238
 MODFLOW STRESS PERIOD      3     CURRENT TIME STEP:      56     ITERATIONS:      18

 -----------------------------------------------------------------------------------

   CUMULATIVE VOLUMES               L**3   RATES FOR THIS TIME STEP           L**3/T
   ------------------                      ------------------------

                                     IN                                         IN
                                     --                                         --
        PRECIPITATION =        1.8252E+07          PRECIPITATION =         284303.69
           STREAMFLOW =                               STREAMFLOW =                  
     GW BOUNDARY FLOW =                         GW BOUNDARY FLOW =                  
                WELLS =                                    WELLS =                  


                                    OUT                                        OUT
                                    ---                                        ---
   EVAPOTRANSPIRATION =        1.2200E+07     EVAPOTRANSPIRATION =         133073.16
           STREAMFLOW =        5684272.00             STREAMFLOW =          15763.66
     GW BOUNDARY FLOW =         154876.61       GW BOUNDARY FLOW =            648.48
                WELLS =                                    WELLS =                  

   INFLOWS - OUTFLOWS =         212514.00     INFLOWS - OUTFLOWS =         134818.41
             --------                                   --------

       STORAGE CHANGE =         225645.53         STORAGE CHANGE =         134859.95
       --------------                             --------------
         LAND SURFACE =          90206.94           LAND SURFACE =          -7731.23
            SOIL ZONE =        1558932.75              SOIL ZONE =         158416.56
     UNSATURATED ZONE =        -779620.56       UNSATURATED ZONE =         -10025.80
       SATURATED ZONE =        -643869.94         SATURATED ZONE =          -5799.57

 OVERALL BUDGET ERROR =         -13131.53   OVERALL BUDGET ERROR =            -41.55


  PERCENT DISCREPANCY =             -0.07    PERCENT DISCREPANCY =             -0.01



1
 SUMMARY VOLUMETRIC BUDGET FOR GSFLOW 
 DATE: 06 02 1981              CUMULATIVE TIME STEP:     245
 MODFLOW STRESS PERIOD      3     CURRENT TIME STEP:      63     ITERATIONS:      18

 -----------------------------------------------------------------------------------

   CUMULATIVE VOLUMES               L**3   RATES FOR THIS TIME STEP           L**3/T
   ------------------                      ------------------------

                                     IN                                         IN
                                     --                                         --
        PRECIPITATION =        1.8318E+07          PRECIPITATION =          50869.96
           STREAMFLOW =                               STREAMFLOW =                  
     GW BOUNDARY FLOW =                         GW BOUNDARY FLOW =                  
                WELLS =                                    WELLS =                  


                                    OUT                                        OUT
                                    ---                                        ---
   EVAPOTRANSPIRATION =        1.3005E+07     EVAPOTRANSPIRATION =          94876.00
           STREAMFLOW =        5760207.00             STREAMFLOW =           8253.66
     GW BOUNDARY FLOW =         159412.98       GW BOUNDARY FLOW =            647.64
                WELLS =                                    WELLS =                  

   INFLOWS - OUTFLOWS =        -606038.00     INFLOWS - OUTFLOWS =         -52907.35
             --------                                   --------

       STORAGE CHANGE =        -592680.00         STORAGE CHANGE =         -52874.01
       --------------                             --------------
         LAND SURFACE =          44420.97           LAND SURFACE =          -6086.82
            SOIL ZONE =         926386.75              SOIL ZONE =         -25828.26
     UNSATURATED ZONE =        -870469.00       UNSATURATED ZONE =         -13420.15
       SATURATED ZONE =        -693015.06         SATURATED ZONE =          -7538.78

 OVERALL BUDGET ERROR =         -13358.00   OVERALL BUDGET ERROR =            -33.34


  PERCENT DISCREPANCY =             -0.07    PERCENT DISCREPANCY =             -0.03



1
 SUMMARY VOLUMETRIC BUDGET FOR GSFLOW 
 DATE: 06 09 1981              CUMULATIVE TIME STEP:     252
 MODFLOW STRESS PERIOD      3     CURRENT TIME STEP:      70     ITERATIONS:      15

 -----------------------------------------------------------------------------------

   CUMULATIVE VOLUMES               L**3   RATES FOR THIS TIME STEP           L**3/T
   ------------------                      ------------------------

                                     IN                                         IN
                                     --                                         --
        PRECIPITATION =        1.8318E+07          PRECIPITATION =                  
           STREAMFLOW =                               STREAMFLOW =                  
     GW BOUNDARY FLOW =                         GW BOUNDARY FLOW =                  
[...]
   ------------------                      ------------------------

                                     IN                                         IN
                                     --                                         --
        PRECIPITATION =        4.6511E+08          PRECIPITATION =                  
           STREAMFLOW =                               STREAMFLOW =                  
     GW BOUNDARY FLOW =                         GW BOUNDARY FLOW =                  
                WELLS =                                    WELLS =                  


                                    OUT                                        OUT
                                    ---                                        ---
   EVAPOTRANSPIRATION =        2.9055E+08     EVAPOTRANSPIRATION =          26341.23
           STREAMFLOW =        1.7558E+08             STREAMFLOW =           8090.25
     GW BOUNDARY FLOW =        3756113.75       GW BOUNDARY FLOW =            656.00
                WELLS =                                    WELLS =                  

   INFLOWS - OUTFLOWS =       -4783264.00     INFLOWS - OUTFLOWS =         -35087.47
             --------                                   --------

       STORAGE CHANGE =       -4557732.00         STORAGE CHANGE =         -35098.60
       --------------                             --------------
         LAND SURFACE =           1718.20           LAND SURFACE =          -1036.03
            SOIL ZONE =         201383.19              SOIL ZONE =          -9276.00
     UNSATURATED ZONE =        3774682.25       UNSATURATED ZONE =         -29547.03
       SATURATED ZONE =       -8535496.00         SATURATED ZONE =           4760.47

 OVERALL BUDGET ERROR =        -225532.00   OVERALL BUDGET ERROR =             11.13


  PERCENT DISCREPANCY =             -0.05    PERCENT DISCREPANCY =              0.03



1
 SUMMARY VOLUMETRIC BUDGET FOR GSFLOW 
 DATE: 08 06 1996              CUMULATIVE TIME STEP:    5789
 MODFLOW STRESS PERIOD      5     CURRENT TIME STEP:    5242     ITERATIONS:      16

 -----------------------------------------------------------------------------------

   CUMULATIVE VOLUMES               L**3   RATES FOR THIS TIME STEP           L**3/T
   ------------------                      ------------------------

                                     IN                                         IN
                                     --                                         --
        PRECIPITATION =        4.6511E+08          PRECIPITATION =                  
           STREAMFLOW =                               STREAMFLOW =                  
     GW BOUNDARY FLOW =                         GW BOUNDARY FLOW =                  
                WELLS =                                    WELLS =                  


                                    OUT                                        OUT
                                    ---                                        ---
   EVAPOTRANSPIRATION =        2.9070E+08     EVAPOTRANSPIRATION =          18003.04
           STREAMFLOW =        1.7564E+08             STREAMFLOW =           7807.71
     GW BOUNDARY FLOW =        3760704.50       GW BOUNDARY FLOW =            655.63
                WELLS =                                    WELLS =                  

   INFLOWS - OUTFLOWS =       -4989312.00     INFLOWS - OUTFLOWS =         -26466.37
             --------                                   --------

       STORAGE CHANGE =       -4763830.00         STORAGE CHANGE =         -26472.77
       --------------                             --------------
         LAND SURFACE =              5.50           LAND SURFACE =                  
            SOIL ZONE =         168836.55              SOIL ZONE =          -2106.75
     UNSATURATED ZONE =        3578321.00       UNSATURATED ZONE =         -27058.30
       SATURATED ZONE =       -8510973.00         SATURATED ZONE =           2692.28

 OVERALL BUDGET ERROR =        -225482.00   OVERALL BUDGET ERROR =              6.40


  PERCENT DISCREPANCY =             -0.05    PERCENT DISCREPANCY =              0.02



1
 SUMMARY VOLUMETRIC BUDGET FOR GSFLOW 
 DATE: 08 13 1996              CUMULATIVE TIME STEP:    5796
 MODFLOW STRESS PERIOD      5     CURRENT TIME STEP:    5249     ITERATIONS:      15

 -----------------------------------------------------------------------------------

   CUMULATIVE VOLUMES               L**3   RATES FOR THIS TIME STEP           L**3/T
   ------------------                      ------------------------

                                     IN                                         IN
                                     --                                         --
        PRECIPITATION =        4.6531E+08          PRECIPITATION =          54454.08
           STREAMFLOW =                               STREAMFLOW =                  
     GW BOUNDARY FLOW =                         GW BOUNDARY FLOW =                  
                WELLS =                                    WELLS =                  


                                    OUT                                        OUT
                                    ---                                        ---
   EVAPOTRANSPIRATION =        2.9093E+08     EVAPOTRANSPIRATION =          57362.89
           STREAMFLOW =        1.7569E+08             STREAMFLOW =           8613.96
     GW BOUNDARY FLOW =        3765292.25       GW BOUNDARY FLOW =            655.32
                WELLS =                                    WELLS =                  

   INFLOWS - OUTFLOWS =       -5076224.00     INFLOWS - OUTFLOWS =         -12178.10
             --------                                   --------

       STORAGE CHANGE =       -4850842.50         STORAGE CHANGE =         -12201.38
       --------------                             --------------
         LAND SURFACE =              5.50           LAND SURFACE =                  
            SOIL ZONE =         250737.41              SOIL ZONE =          11757.65
     UNSATURATED ZONE =        3390988.25       UNSATURATED ZONE =         -26415.90
       SATURATED ZONE =       -8492553.00         SATURATED ZONE =           2456.86

 OVERALL BUDGET ERROR =        -225381.50   OVERALL BUDGET ERROR =             23.29


  PERCENT DISCREPANCY =             -0.05    PERCENT DISCREPANCY =              0.03



1
 SUMMARY VOLUMETRIC BUDGET FOR GSFLOW 
 DATE: 08 20 1996              CUMULATIVE TIME STEP:    5803
 MODFLOW STRESS PERIOD      5     CURRENT TIME STEP:    5256     ITERATIONS:      18

 -----------------------------------------------------------------------------------

   CUMULATIVE VOLUMES               L**3   RATES FOR THIS TIME STEP           L**3/T
   ------------------                      ------------------------

                                     IN                                         IN
                                     --                                         --
        PRECIPITATION =        4.6531E+08          PRECIPITATION =                  
           STREAMFLOW =                               STREAMFLOW =                  
     GW BOUNDARY FLOW =                         GW BOUNDARY FLOW =                  
                WELLS =                                    WELLS =                  


                                    OUT                                        OUT
                                    ---                                        ---
   EVAPOTRANSPIRATION =        2.9109E+08     EVAPOTRANSPIRATION =          17702.69
           STREAMFLOW =        1.7575E+08             STREAMFLOW =           7515.91
     GW BOUNDARY FLOW =        3769877.50       GW BOUNDARY FLOW =            654.81
                WELLS =                                    WELLS =                  

   INFLOWS - OUTFLOWS =       -5294336.00     INFLOWS - OUTFLOWS =         -25873.40
             --------                                   --------

       STORAGE CHANGE =       -5069061.50         STORAGE CHANGE =         -25874.60
       --------------                             --------------
         LAND SURFACE =              5.50           LAND SURFACE =                  
            SOIL ZONE =         199010.03              SOIL ZONE =          -2259.47
     UNSATURATED ZONE =        3213907.50       UNSATURATED ZONE =         -24842.50
       SATURATED ZONE =       -8481963.00         SATURATED ZONE =           1227.36

 OVERALL BUDGET ERROR =        -225274.50   OVERALL BUDGET ERROR =              1.20


  PERCENT DISCREPANCY =             -0.05    PERCENT DISCREPANCY =              0.00



1
 SUMMARY VOLUMETRIC BUDGET FOR GSFLOW 
 DATE: 08 27 1996              CUMULATIVE TIME STEP:    5810
 MODFLOW STRESS PERIOD      5     CURRENT TIME STEP:    5263     ITERATIONS:      16

 -----------------------------------------------------------------------------------

   CUMULATIVE VOLUMES               L**3   RATES FOR THIS TIME STEP           L**3/T
   ------------------                      ------------------------

                                     IN                                         IN
                                     --                                         --
        PRECIPITATION =        4.6531E+08          PRECIPITATION =                  
           STREAMFLOW =                               STREAMFLOW =                  
     GW BOUNDARY FLOW =                         GW BOUNDARY FLOW =                  
                WELLS =                                    WELLS =                  


                                    OUT                                        OUT
                                    ---                                        ---
   EVAPOTRANSPIRATION =        2.9123E+08     EVAPOTRANSPIRATION =          16757.16
           STREAMFLOW =        1.7580E+08             STREAMFLOW =           7306.07
     GW BOUNDARY FLOW =        3774459.25       GW BOUNDARY FLOW =            654.33
                WELLS =                                    WELLS =                  

   INFLOWS - OUTFLOWS =       -5494432.00     INFLOWS - OUTFLOWS =         -24717.56
             --------                                   --------

       STORAGE CHANGE =       -5269158.00         STORAGE CHANGE =         -24712.75
       --------------                             --------------
         LAND SURFACE =              5.50           LAND SURFACE =                  
            SOIL ZONE =         162840.25              SOIL ZONE =          -1446.75
     UNSATURATED ZONE =        3043959.50       UNSATURATED ZONE =         -23792.25
       SATURATED ZONE =       -8475942.00         SATURATED ZONE =            526.25

 OVERALL BUDGET ERROR =        -225274.00   OVERALL BUDGET ERROR =             -4.81


  PERCENT DISCREPANCY =             -0.05    PERCENT DISCREPANCY =             -0.02



1
 SUMMARY VOLUMETRIC BUDGET FOR GSFLOW 
 DATE: 09 03 1996              CUMULATIVE TIME STEP:    5817
 MODFLOW STRESS PERIOD      5     CURRENT TIME STEP:    5270     ITERATIONS:      24

 -----------------------------------------------------------------------------------

   CUMULATIVE VOLUMES               L**3   RATES FOR THIS TIME STEP           L**3/T
   ------------------                      ------------------------

                                     IN                                         IN
                                     --                                         --
        PRECIPITATION =        4.6531E+08          PRECIPITATION =                  
           STREAMFLOW =                               STREAMFLOW =                  
     GW BOUNDARY FLOW =                         GW BOUNDARY FLOW =                  
                WELLS =                                    WELLS =                  


                                    OUT                                        OUT
                                    ---                                        ---
   EVAPOTRANSPIRATION =        2.9135E+08     EVAPOTRANSPIRATION =          14123.45
           STREAMFLOW =        1.7585E+08             STREAMFLOW =           7164.31
     GW BOUNDARY FLOW =        3779037.50       GW BOUNDARY FLOW =            653.86
                WELLS =                                    WELLS =                  

   INFLOWS - OUTFLOWS =       -5666560.00     INFLOWS - OUTFLOWS =         -21941.61
             --------                                   --------

       STORAGE CHANGE =       -5441255.00         STORAGE CHANGE =         -21942.37
       --------------                             --------------
         LAND SURFACE =              5.50           LAND SURFACE =                  
            SOIL ZONE =         152349.00              SOIL ZONE =           1012.41
     UNSATURATED ZONE =        2880767.00       UNSATURATED ZONE =         -22882.07
       SATURATED ZONE =       -8474356.00         SATURATED ZONE =            -72.71

 OVERALL BUDGET ERROR =        -225305.00   OVERALL BUDGET ERROR =              0.76


  PERCENT DISCREPANCY =             -0.05    PERCENT DISCREPANCY =              0.00



1
 SUMMARY VOLUMETRIC BUDGET FOR GSFLOW 
 DATE: 09 10 1996              CUMULATIVE TIME STEP:    5824
 MODFLOW STRESS PERIOD      5     CURRENT TIME STEP:    5277     ITERATIONS:      20

 -----------------------------------------------------------------------------------

   CUMULATIVE VOLUMES               L**3   RATES FOR THIS TIME STEP           L**3/T
   ------------------                      ------------------------

                                     IN                                         IN
                                     --                                         --
        PRECIPITATION =        4.6531E+08          PRECIPITATION =                  
           STREAMFLOW =                               STREAMFLOW =                  
     GW BOUNDARY FLOW =                         GW BOUNDARY FLOW =                  
                WELLS =                                    WELLS =                  


                                    OUT                                        OUT
                                    ---                                        ---
   EVAPOTRANSPIRATION =        2.9145E+08     EVAPOTRANSPIRATION =          15761.34
           STREAMFLOW =        1.7590E+08             STREAMFLOW =           7038.18
     GW BOUNDARY FLOW =        3783612.75       GW BOUNDARY FLOW =            653.39
                WELLS =                                    WELLS =                  

   INFLOWS - OUTFLOWS =       -5817600.00     INFLOWS - OUTFLOWS =         -23452.92
             --------                                   --------

       STORAGE CHANGE =       -5592348.50         STORAGE CHANGE =         -23450.52
       --------------                             --------------
         LAND SURFACE =              5.50           LAND SURFACE =                  
            SOIL ZONE =         160760.52              SOIL ZONE =           -791.88
     UNSATURATED ZONE =        2726265.25       UNSATURATED ZONE =         -21758.98
       SATURATED ZONE =       -8479361.00         SATURATED ZONE =           -899.66

 OVERALL BUDGET ERROR =        -225251.50   OVERALL BUDGET ERROR =             -2.40


  PERCENT DISCREPANCY =             -0.05    PERCENT DISCREPANCY =             -0.01



1
 SUMMARY VOLUMETRIC BUDGET FOR GSFLOW 
 DATE: 09 17 1996              CUMULATIVE TIME STEP:    5831
 MODFLOW STRESS PERIOD      5     CURRENT TIME STEP:    5284     ITERATIONS:      15

 -----------------------------------------------------------------------------------

   CUMULATIVE VOLUMES               L**3   RATES FOR THIS TIME STEP           L**3/T
   ------------------                      ------------------------

                                     IN                                         IN
                                     --                                         --
        PRECIPITATION =        4.6637E+08          PRECIPITATION =                  
           STREAMFLOW =                               STREAMFLOW =                  
     GW BOUNDARY FLOW =                         GW BOUNDARY FLOW =                  
                WELLS =                                    WELLS =                  


                                    OUT                                        OUT
                                    ---                                        ---
   EVAPOTRANSPIRATION =        2.9167E+08     EVAPOTRANSPIRATION =          67792.45
           STREAMFLOW =        1.7597E+08             STREAMFLOW =          13373.92
     GW BOUNDARY FLOW =        3788186.25       GW BOUNDARY FLOW =            653.63
                WELLS =                                    WELLS =                  

   INFLOWS - OUTFLOWS =       -5059456.00     INFLOWS - OUTFLOWS =         -81820.00
             --------                                   --------

       STORAGE CHANGE =       -4834178.00         STORAGE CHANGE =         -81833.50
       --------------                             --------------
         LAND SURFACE =              5.50           LAND SURFACE =          -6475.89
            SOIL ZONE =        1075546.38              SOIL ZONE =         -53077.18
     UNSATURATED ZONE =        2579007.75       UNSATURATED ZONE =         -20425.29
       SATURATED ZONE =       -8488718.00         SATURATED ZONE =          -1855.14

 OVERALL BUDGET ERROR =        -225278.00   OVERALL BUDGET ERROR =             13.50


  PERCENT DISCREPANCY =             -0.05    PERCENT DISCREPANCY =              0.02



1
 SUMMARY VOLUMETRIC BUDGET FOR GSFLOW 
 DATE: 09 24 1996              CUMULATIVE TIME STEP:    5838
 MODFLOW STRESS PERIOD      5     CURRENT TIME STEP:    5291     ITERATIONS:      15

 -----------------------------------------------------------------------------------

   CUMULATIVE VOLUMES               L**3   RATES FOR THIS TIME STEP           L**3/T
   ------------------                      ------------------------

                                     IN                                         IN
                                     --                                         --
        PRECIPITATION =        4.6637E+08          PRECIPITATION =                  
           STREAMFLOW =                               STREAMFLOW =                  
     GW BOUNDARY FLOW =                         GW BOUNDARY FLOW =                  
                WELLS =                                    WELLS =                  


                                    OUT                                        OUT
                                    ---                                        ---
   EVAPOTRANSPIRATION =        2.9217E+08     EVAPOTRANSPIRATION =          55241.20
           STREAMFLOW =        1.7603E+08             STREAMFLOW =           7779.95
     GW BOUNDARY FLOW =        3792758.50       GW BOUNDARY FLOW =            652.79
                WELLS =                                    WELLS =                  

   INFLOWS - OUTFLOWS =       -5631776.00     INFLOWS - OUTFLOWS =         -63673.93
             --------                                   --------

       STORAGE CHANGE =       -5406542.50         STORAGE CHANGE =         -63677.82
       --------------                             --------------
         LAND SURFACE =              5.50           LAND SURFACE =                  
            SOIL ZONE =         659375.81              SOIL ZONE =         -41513.11
     UNSATURATED ZONE =        2439002.00       UNSATURATED ZONE =         -19523.47
       SATURATED ZONE =       -8504905.00         SATURATED ZONE =          -2641.23

 OVERALL BUDGET ERROR =        -225233.50   OVERALL BUDGET ERROR =              3.89


  PERCENT DISCREPANCY =             -0.05    PERCENT DISCREPANCY =              0.01



